version 2
run General-137-20160902-14:55:07-7280
attr a 0.9
attr cd wfc0.01
attr configname General
attr cr lru
attr datetime 20160902-14:55:07
attr experiment General
attr fsize 1
attr inifile hw5115/scenario_Y/omnetp.ini
attr iterationvars "$name=tree_4_3, $un=06, $rep=18, $cd=wfc0.01, $cr=lru, $fsize=1, $a=0.9, $sl=nrr, $ttl=1000, $variance=0.05"
attr iterationvars2 "$name=tree_4_3, $un=06, $rep=18, $cd=wfc0.01, $cr=lru, $fsize=1, $a=0.9, $sl=nrr, $ttl=1000, $variance=0.05, $repetition=0"
attr measurement "$name=tree_4_3, $un=06, $rep=18, $cd=wfc0.01, $cr=lru, $fsize=1, $a=0.9, $sl=nrr, $ttl=1000, $variance=0.05"
attr name tree_4_3
attr network networks.${name}_u${un}_r${rep}_network
attr processid 7280
attr rep 18
attr repetition 0
attr replication #0
attr resultdir results
attr runnumber 137
attr seedset 18
attr sl nrr
attr ttl 1000
attr un 06
attr variance 0.05

scalar . 	a 	0.9
scalar . 	fsize 	1
scalar . 	rep 	18
scalar . 	ttl 	1000
scalar . 	un 	06
scalar . 	variance 	0.05
scalar tree_4_3_u06_r18_network.content_distribution 	repo-0 	0
scalar tree_4_3_u06_r18_network.content_distribution 	client-0 	13
scalar tree_4_3_u06_r18_network.content_distribution 	client-1 	14
scalar tree_4_3_u06_r18_network.content_distribution 	client-2 	15
scalar tree_4_3_u06_r18_network.content_distribution 	client-3 	16
scalar tree_4_3_u06_r18_network.content_distribution 	client-4 	17
scalar tree_4_3_u06_r18_network.content_distribution 	client-5 	18
scalar tree_4_3_u06_r18_network.content_distribution 	client-6 	19
scalar tree_4_3_u06_r18_network.content_distribution 	client-7 	20
scalar tree_4_3_u06_r18_network.content_distribution 	client-8 	21
scalar tree_4_3_u06_r18_network.content_distribution 	client-9 	22
scalar tree_4_3_u06_r18_network.content_distribution 	client-10 	23
scalar tree_4_3_u06_r18_network.content_distribution 	client-11 	24
scalar tree_4_3_u06_r18_network.content_distribution 	client-12 	25
scalar tree_4_3_u06_r18_network.content_distribution 	client-13 	26
scalar tree_4_3_u06_r18_network.content_distribution 	client-14 	27
scalar tree_4_3_u06_r18_network.content_distribution 	client-15 	28
scalar tree_4_3_u06_r18_network.content_distribution 	client-16 	29
scalar tree_4_3_u06_r18_network.content_distribution 	client-17 	30
scalar tree_4_3_u06_r18_network.content_distribution 	client-18 	31
scalar tree_4_3_u06_r18_network.content_distribution 	client-19 	32
scalar tree_4_3_u06_r18_network.content_distribution 	client-20 	33
scalar tree_4_3_u06_r18_network.content_distribution 	client-21 	34
scalar tree_4_3_u06_r18_network.content_distribution 	client-22 	35
scalar tree_4_3_u06_r18_network.content_distribution 	client-23 	36
scalar tree_4_3_u06_r18_network.content_distribution 	client-24 	37
scalar tree_4_3_u06_r18_network.content_distribution 	client-25 	38
scalar tree_4_3_u06_r18_network.content_distribution 	client-26 	39
scalar tree_4_3_u06_r18_network.content_distribution 	repo-0_card 	100000
scalar tree_4_3_u06_r18_network.content_distribution 	repo-0_price 	0
scalar tree_4_3_u06_r18_network.statistics 	stabilization_time 	979.2
scalar tree_4_3_u06_r18_network.statistics 	p_hit 	0.23407078666914
scalar tree_4_3_u06_r18_network.statistics 	interests 	25171.3
scalar tree_4_3_u06_r18_network.statistics 	data 	17061.575
scalar tree_4_3_u06_r18_network.statistics 	hdistance 	2.67445192868
scalar tree_4_3_u06_r18_network.statistics 	avg_time 	0.004207882683
scalar tree_4_3_u06_r18_network.statistics 	downloads 	324374
scalar tree_4_3_u06_r18_network.statistics 	total_cost 	0
scalar tree_4_3_u06_r18_network.statistics 	total_replicas 	100000
scalar tree_4_3_u06_r18_network.statistics 	inner_hit 	0.4295350428826
scalar tree_4_3_u06_r18_network.node[0].core_layer 	interests[0] 	187162
scalar tree_4_3_u06_r18_network.node[0].core_layer 	repo_load[0] 	185044
scalar tree_4_3_u06_r18_network.node[0].core_layer 	data[0] 	0
scalar tree_4_3_u06_r18_network.node[0].core_layer 	repo_int[0] 	185044
scalar tree_4_3_u06_r18_network.node[0].content_store 	p_hit[0] 	0.01131639969652
scalar tree_4_3_u06_r18_network.node[0].content_store 	hits[0] 	2118
scalar tree_4_3_u06_r18_network.node[0].content_store 	misses[0] 	185044
scalar tree_4_3_u06_r18_network.node[0].content_store 	decision_yes[0] 	2755
scalar tree_4_3_u06_r18_network.node[0].content_store 	decision_no[0] 	182289
scalar tree_4_3_u06_r18_network.node[0].content_store 	decision_ratio[0] 	0.01488835087871
scalar tree_4_3_u06_r18_network.node[1].core_layer 	interests[1] 	96099
scalar tree_4_3_u06_r18_network.node[1].core_layer 	data[1] 	94530
scalar tree_4_3_u06_r18_network.node[1].content_store 	p_hit[1] 	0.01630610100001
scalar tree_4_3_u06_r18_network.node[1].content_store 	hits[1] 	1567
scalar tree_4_3_u06_r18_network.node[1].content_store 	misses[1] 	94532
scalar tree_4_3_u06_r18_network.node[1].content_store 	decision_yes[1] 	1040
scalar tree_4_3_u06_r18_network.node[1].content_store 	decision_no[1] 	93490
scalar tree_4_3_u06_r18_network.node[1].content_store 	decision_ratio[1] 	0.011001798370888
scalar tree_4_3_u06_r18_network.node[2].core_layer 	interests[2] 	86548
scalar tree_4_3_u06_r18_network.node[2].core_layer 	data[2] 	84153
scalar tree_4_3_u06_r18_network.node[2].content_store 	p_hit[2] 	0.027649396866479
scalar tree_4_3_u06_r18_network.node[2].content_store 	hits[2] 	2393
scalar tree_4_3_u06_r18_network.node[2].content_store 	misses[2] 	84155
scalar tree_4_3_u06_r18_network.node[2].content_store 	decision_yes[2] 	1032
scalar tree_4_3_u06_r18_network.node[2].content_store 	decision_no[2] 	83121
scalar tree_4_3_u06_r18_network.node[2].content_store 	decision_ratio[2] 	0.0122633774197
scalar tree_4_3_u06_r18_network.node[3].core_layer 	interests[3] 	32022
scalar tree_4_3_u06_r18_network.node[3].core_layer 	data[3] 	28164
scalar tree_4_3_u06_r18_network.node[3].content_store 	p_hit[3] 	0.12047967022672
scalar tree_4_3_u06_r18_network.node[3].content_store 	hits[3] 	3858
scalar tree_4_3_u06_r18_network.node[3].content_store 	misses[3] 	28164
scalar tree_4_3_u06_r18_network.node[3].content_store 	decision_yes[3] 	612
scalar tree_4_3_u06_r18_network.node[3].content_store 	decision_no[3] 	27552
scalar tree_4_3_u06_r18_network.node[3].content_store 	decision_ratio[3] 	0.021729867916489
scalar tree_4_3_u06_r18_network.node[4].core_layer 	interests[4] 	42167
scalar tree_4_3_u06_r18_network.node[4].core_layer 	data[4] 	39915
scalar tree_4_3_u06_r18_network.node[4].content_store 	p_hit[4] 	0.053406692437214
scalar tree_4_3_u06_r18_network.node[4].content_store 	hits[4] 	2252
scalar tree_4_3_u06_r18_network.node[4].content_store 	misses[4] 	39915
scalar tree_4_3_u06_r18_network.node[4].content_store 	decision_yes[4] 	548
scalar tree_4_3_u06_r18_network.node[4].content_store 	decision_no[4] 	39367
scalar tree_4_3_u06_r18_network.node[4].content_store 	decision_ratio[4] 	0.013729174495804
scalar tree_4_3_u06_r18_network.node[5].core_layer 	interests[5] 	30384
scalar tree_4_3_u06_r18_network.node[5].core_layer 	data[5] 	27029
scalar tree_4_3_u06_r18_network.node[5].content_store 	p_hit[5] 	0.11035413375461
scalar tree_4_3_u06_r18_network.node[5].content_store 	hits[5] 	3353
scalar tree_4_3_u06_r18_network.node[5].content_store 	misses[5] 	27031
scalar tree_4_3_u06_r18_network.node[5].content_store 	decision_yes[5] 	471
scalar tree_4_3_u06_r18_network.node[5].content_store 	decision_no[5] 	26558
scalar tree_4_3_u06_r18_network.node[5].content_store 	decision_ratio[5] 	0.017425727921862
scalar tree_4_3_u06_r18_network.node[6].core_layer 	interests[6] 	14483
scalar tree_4_3_u06_r18_network.node[6].core_layer 	data[6] 	10925
scalar tree_4_3_u06_r18_network.node[6].content_store 	p_hit[6] 	0.24566733411586
scalar tree_4_3_u06_r18_network.node[6].content_store 	hits[6] 	3558
scalar tree_4_3_u06_r18_network.node[6].content_store 	misses[6] 	10925
scalar tree_4_3_u06_r18_network.node[6].content_store 	decision_yes[6] 	344
scalar tree_4_3_u06_r18_network.node[6].content_store 	decision_no[6] 	10581
scalar tree_4_3_u06_r18_network.node[6].content_store 	decision_ratio[6] 	0.031487414187643
scalar tree_4_3_u06_r18_network.node[7].core_layer 	interests[7] 	43090
scalar tree_4_3_u06_r18_network.node[7].core_layer 	data[7] 	40669
scalar tree_4_3_u06_r18_network.node[7].content_store 	p_hit[7] 	0.056161522394987
scalar tree_4_3_u06_r18_network.node[7].content_store 	hits[7] 	2420
scalar tree_4_3_u06_r18_network.node[7].content_store 	misses[7] 	40670
scalar tree_4_3_u06_r18_network.node[7].content_store 	decision_yes[7] 	583
scalar tree_4_3_u06_r18_network.node[7].content_store 	decision_no[7] 	40086
scalar tree_4_3_u06_r18_network.node[7].content_store 	decision_ratio[7] 	0.014335243059824
scalar tree_4_3_u06_r18_network.node[8].core_layer 	interests[8] 	28230
scalar tree_4_3_u06_r18_network.node[8].core_layer 	data[8] 	25447
scalar tree_4_3_u06_r18_network.node[8].content_store 	p_hit[8] 	0.098583067658519
scalar tree_4_3_u06_r18_network.node[8].content_store 	hits[8] 	2783
scalar tree_4_3_u06_r18_network.node[8].content_store 	misses[8] 	25447
scalar tree_4_3_u06_r18_network.node[8].content_store 	decision_yes[8] 	418
scalar tree_4_3_u06_r18_network.node[8].content_store 	decision_no[8] 	25029
scalar tree_4_3_u06_r18_network.node[8].content_store 	decision_ratio[8] 	0.016426297795418
scalar tree_4_3_u06_r18_network.node[9].core_layer 	interests[9] 	15059
scalar tree_4_3_u06_r18_network.node[9].core_layer 	data[9] 	11100
scalar tree_4_3_u06_r18_network.node[9].content_store 	p_hit[9] 	0.26276645195564
scalar tree_4_3_u06_r18_network.node[9].content_store 	hits[9] 	3957
scalar tree_4_3_u06_r18_network.node[9].content_store 	misses[9] 	11102
scalar tree_4_3_u06_r18_network.node[9].content_store 	decision_yes[9] 	344
scalar tree_4_3_u06_r18_network.node[9].content_store 	decision_no[9] 	10756
scalar tree_4_3_u06_r18_network.node[9].content_store 	decision_ratio[9] 	0.030990990990991
scalar tree_4_3_u06_r18_network.node[10].core_layer 	interests[10] 	37750
scalar tree_4_3_u06_r18_network.node[10].core_layer 	data[10] 	34776
scalar tree_4_3_u06_r18_network.node[10].content_store 	p_hit[10] 	0.078675496688742
scalar tree_4_3_u06_r18_network.node[10].content_store 	hits[10] 	2970
scalar tree_4_3_u06_r18_network.node[10].content_store 	misses[10] 	34780
scalar tree_4_3_u06_r18_network.node[10].content_store 	decision_yes[10] 	579
scalar tree_4_3_u06_r18_network.node[10].content_store 	decision_no[10] 	34197
scalar tree_4_3_u06_r18_network.node[10].content_store 	decision_ratio[10] 	0.016649413388544
scalar tree_4_3_u06_r18_network.node[11].core_layer 	interests[11] 	21810
scalar tree_4_3_u06_r18_network.node[11].core_layer 	data[11] 	18435
scalar tree_4_3_u06_r18_network.node[11].content_store 	p_hit[11] 	0.15474552957359
scalar tree_4_3_u06_r18_network.node[11].content_store 	hits[11] 	3375
scalar tree_4_3_u06_r18_network.node[11].content_store 	misses[11] 	18435
scalar tree_4_3_u06_r18_network.node[11].content_store 	decision_yes[11] 	336
scalar tree_4_3_u06_r18_network.node[11].content_store 	decision_no[11] 	18099
scalar tree_4_3_u06_r18_network.node[11].content_store 	decision_ratio[11] 	0.018226200162734
scalar tree_4_3_u06_r18_network.node[12].core_layer 	interests[12] 	27988
scalar tree_4_3_u06_r18_network.node[12].core_layer 	data[12] 	26048
scalar tree_4_3_u06_r18_network.node[12].content_store 	p_hit[12] 	0.069315420894669
scalar tree_4_3_u06_r18_network.node[12].content_store 	hits[12] 	1940
scalar tree_4_3_u06_r18_network.node[12].content_store 	misses[12] 	26048
scalar tree_4_3_u06_r18_network.node[12].content_store 	decision_yes[12] 	404
scalar tree_4_3_u06_r18_network.node[12].content_store 	decision_no[12] 	25644
scalar tree_4_3_u06_r18_network.node[12].content_store 	decision_ratio[12] 	0.015509828009828
scalar tree_4_3_u06_r18_network.node[13].core_layer 	interests[13] 	12613
scalar tree_4_3_u06_r18_network.node[13].core_layer 	data[13] 	8955
scalar tree_4_3_u06_r18_network.node[13].content_store 	p_hit[13] 	0.29001823515421
scalar tree_4_3_u06_r18_network.node[13].content_store 	hits[13] 	3658
scalar tree_4_3_u06_r18_network.node[13].content_store 	misses[13] 	8955
scalar tree_4_3_u06_r18_network.node[13].content_store 	decision_yes[13] 	108
scalar tree_4_3_u06_r18_network.node[13].content_store 	decision_no[13] 	8847
scalar tree_4_3_u06_r18_network.node[13].content_store 	decision_ratio[13] 	0.012060301507538
scalar tree_4_3_u06_r18_network.node[14].core_layer 	interests[14] 	12488
scalar tree_4_3_u06_r18_network.node[14].core_layer 	data[14] 	8892
scalar tree_4_3_u06_r18_network.node[14].content_store 	p_hit[14] 	0.28795643818065
scalar tree_4_3_u06_r18_network.node[14].content_store 	hits[14] 	3596
scalar tree_4_3_u06_r18_network.node[14].content_store 	misses[14] 	8892
scalar tree_4_3_u06_r18_network.node[14].content_store 	decision_yes[14] 	124
scalar tree_4_3_u06_r18_network.node[14].content_store 	decision_no[14] 	8768
scalar tree_4_3_u06_r18_network.node[14].content_store 	decision_ratio[14] 	0.013945119208277
scalar tree_4_3_u06_r18_network.node[15].core_layer 	interests[15] 	12736
scalar tree_4_3_u06_r18_network.node[15].core_layer 	data[15] 	8697
scalar tree_4_3_u06_r18_network.node[15].content_store 	p_hit[15] 	0.31713253768844
scalar tree_4_3_u06_r18_network.node[15].content_store 	hits[15] 	4039
scalar tree_4_3_u06_r18_network.node[15].content_store 	misses[15] 	8697
scalar tree_4_3_u06_r18_network.node[15].content_store 	decision_yes[15] 	138
scalar tree_4_3_u06_r18_network.node[15].content_store 	decision_no[15] 	8559
scalar tree_4_3_u06_r18_network.node[15].content_store 	decision_ratio[15] 	0.015867540531218
scalar tree_4_3_u06_r18_network.node[16].core_layer 	interests[16] 	13240
scalar tree_4_3_u06_r18_network.node[16].core_layer 	data[16] 	8938
scalar tree_4_3_u06_r18_network.node[16].content_store 	p_hit[16] 	0.32492447129909
scalar tree_4_3_u06_r18_network.node[16].content_store 	hits[16] 	4302
scalar tree_4_3_u06_r18_network.node[16].content_store 	misses[16] 	8938
scalar tree_4_3_u06_r18_network.node[16].content_store 	decision_yes[16] 	137
scalar tree_4_3_u06_r18_network.node[16].content_store 	decision_no[16] 	8801
scalar tree_4_3_u06_r18_network.node[16].content_store 	decision_ratio[16] 	0.015327813828597
scalar tree_4_3_u06_r18_network.node[17].core_layer 	interests[17] 	12545
scalar tree_4_3_u06_r18_network.node[17].core_layer 	data[17] 	8978
scalar tree_4_3_u06_r18_network.node[17].content_store 	p_hit[17] 	0.28425667596652
scalar tree_4_3_u06_r18_network.node[17].content_store 	hits[17] 	3566
scalar tree_4_3_u06_r18_network.node[17].content_store 	misses[17] 	8979
scalar tree_4_3_u06_r18_network.node[17].content_store 	decision_yes[17] 	104
scalar tree_4_3_u06_r18_network.node[17].content_store 	decision_no[17] 	8874
scalar tree_4_3_u06_r18_network.node[17].content_store 	decision_ratio[17] 	0.011583871686344
scalar tree_4_3_u06_r18_network.node[18].core_layer 	interests[18] 	12717
scalar tree_4_3_u06_r18_network.node[18].core_layer 	data[18] 	8960
scalar tree_4_3_u06_r18_network.node[18].content_store 	p_hit[18] 	0.29535267751828
scalar tree_4_3_u06_r18_network.node[18].content_store 	hits[18] 	3756
scalar tree_4_3_u06_r18_network.node[18].content_store 	misses[18] 	8961
scalar tree_4_3_u06_r18_network.node[18].content_store 	decision_yes[18] 	102
scalar tree_4_3_u06_r18_network.node[18].content_store 	decision_no[18] 	8858
scalar tree_4_3_u06_r18_network.node[18].content_store 	decision_ratio[18] 	0.011383928571429
scalar tree_4_3_u06_r18_network.node[19].core_layer 	interests[19] 	13015
scalar tree_4_3_u06_r18_network.node[19].core_layer 	data[19] 	8979
scalar tree_4_3_u06_r18_network.node[19].content_store 	p_hit[19] 	0.31010372646946
scalar tree_4_3_u06_r18_network.node[19].content_store 	hits[19] 	4036
scalar tree_4_3_u06_r18_network.node[19].content_store 	misses[19] 	8979
scalar tree_4_3_u06_r18_network.node[19].content_store 	decision_yes[19] 	145
scalar tree_4_3_u06_r18_network.node[19].content_store 	decision_no[19] 	8834
scalar tree_4_3_u06_r18_network.node[19].content_store 	decision_ratio[19] 	0.016148791624903
scalar tree_4_3_u06_r18_network.node[20].core_layer 	interests[20] 	13208
scalar tree_4_3_u06_r18_network.node[20].core_layer 	data[20] 	9160
scalar tree_4_3_u06_r18_network.node[20].content_store 	p_hit[20] 	0.30648092065415
scalar tree_4_3_u06_r18_network.node[20].content_store 	hits[20] 	4048
scalar tree_4_3_u06_r18_network.node[20].content_store 	misses[20] 	9160
scalar tree_4_3_u06_r18_network.node[20].content_store 	decision_yes[20] 	153
scalar tree_4_3_u06_r18_network.node[20].content_store 	decision_no[20] 	9007
scalar tree_4_3_u06_r18_network.node[20].content_store 	decision_ratio[20] 	0.016703056768559
scalar tree_4_3_u06_r18_network.node[21].core_layer 	interests[21] 	12407
scalar tree_4_3_u06_r18_network.node[21].core_layer 	data[21] 	8983
scalar tree_4_3_u06_r18_network.node[21].content_store 	p_hit[21] 	0.27597324091239
scalar tree_4_3_u06_r18_network.node[21].content_store 	hits[21] 	3424
scalar tree_4_3_u06_r18_network.node[21].content_store 	misses[21] 	8983
scalar tree_4_3_u06_r18_network.node[21].content_store 	decision_yes[21] 	132
scalar tree_4_3_u06_r18_network.node[21].content_store 	decision_no[21] 	8851
scalar tree_4_3_u06_r18_network.node[21].content_store 	decision_ratio[21] 	0.01469442279862
scalar tree_4_3_u06_r18_network.node[22].core_layer 	interests[22] 	12642
scalar tree_4_3_u06_r18_network.node[22].core_layer 	data[22] 	9069
scalar tree_4_3_u06_r18_network.node[22].content_store 	p_hit[22] 	0.28262933080209
scalar tree_4_3_u06_r18_network.node[22].content_store 	hits[22] 	3573
scalar tree_4_3_u06_r18_network.node[22].content_store 	misses[22] 	9069
scalar tree_4_3_u06_r18_network.node[22].content_store 	decision_yes[22] 	98
scalar tree_4_3_u06_r18_network.node[22].content_store 	decision_no[22] 	8971
scalar tree_4_3_u06_r18_network.node[22].content_store 	decision_ratio[22] 	0.010806042562576
scalar tree_4_3_u06_r18_network.node[23].core_layer 	interests[23] 	13121
scalar tree_4_3_u06_r18_network.node[23].core_layer 	data[23] 	8905
scalar tree_4_3_u06_r18_network.node[23].content_store 	p_hit[23] 	0.32131697279171
scalar tree_4_3_u06_r18_network.node[23].content_store 	hits[23] 	4216
scalar tree_4_3_u06_r18_network.node[23].content_store 	misses[23] 	8905
scalar tree_4_3_u06_r18_network.node[23].content_store 	decision_yes[23] 	127
scalar tree_4_3_u06_r18_network.node[23].content_store 	decision_no[23] 	8778
scalar tree_4_3_u06_r18_network.node[23].content_store 	decision_ratio[23] 	0.014261650758001
scalar tree_4_3_u06_r18_network.node[24].core_layer 	interests[24] 	12958
scalar tree_4_3_u06_r18_network.node[24].core_layer 	data[24] 	8897
scalar tree_4_3_u06_r18_network.node[24].content_store 	p_hit[24] 	0.31331995678345
scalar tree_4_3_u06_r18_network.node[24].content_store 	hits[24] 	4060
scalar tree_4_3_u06_r18_network.node[24].content_store 	misses[24] 	8898
scalar tree_4_3_u06_r18_network.node[24].content_store 	decision_yes[24] 	122
scalar tree_4_3_u06_r18_network.node[24].content_store 	decision_no[24] 	8775
scalar tree_4_3_u06_r18_network.node[24].content_store 	decision_ratio[24] 	0.013712487355288
scalar tree_4_3_u06_r18_network.node[25].core_layer 	interests[25] 	12995
scalar tree_4_3_u06_r18_network.node[25].core_layer 	data[25] 	8826
scalar tree_4_3_u06_r18_network.node[25].content_store 	p_hit[25] 	0.32073874567141
scalar tree_4_3_u06_r18_network.node[25].content_store 	hits[25] 	4168
scalar tree_4_3_u06_r18_network.node[25].content_store 	misses[25] 	8827
scalar tree_4_3_u06_r18_network.node[25].content_store 	decision_yes[25] 	130
scalar tree_4_3_u06_r18_network.node[25].content_store 	decision_no[25] 	8696
scalar tree_4_3_u06_r18_network.node[25].content_store 	decision_ratio[25] 	0.01472920915477
scalar tree_4_3_u06_r18_network.node[26].core_layer 	interests[26] 	12444
scalar tree_4_3_u06_r18_network.node[26].core_layer 	data[26] 	8944
scalar tree_4_3_u06_r18_network.node[26].content_store 	p_hit[26] 	0.28126004500161
scalar tree_4_3_u06_r18_network.node[26].content_store 	hits[26] 	3500
scalar tree_4_3_u06_r18_network.node[26].content_store 	misses[26] 	8944
scalar tree_4_3_u06_r18_network.node[26].content_store 	decision_yes[26] 	110
scalar tree_4_3_u06_r18_network.node[26].content_store 	decision_no[26] 	8834
scalar tree_4_3_u06_r18_network.node[26].content_store 	decision_ratio[26] 	0.012298747763864
scalar tree_4_3_u06_r18_network.node[27].core_layer 	interests[27] 	12385
scalar tree_4_3_u06_r18_network.node[27].core_layer 	data[27] 	8870
scalar tree_4_3_u06_r18_network.node[27].content_store 	p_hit[27] 	0.28373031893419
scalar tree_4_3_u06_r18_network.node[27].content_store 	hits[27] 	3514
scalar tree_4_3_u06_r18_network.node[27].content_store 	misses[27] 	8871
scalar tree_4_3_u06_r18_network.node[27].content_store 	decision_yes[27] 	125
scalar tree_4_3_u06_r18_network.node[27].content_store 	decision_no[27] 	8745
scalar tree_4_3_u06_r18_network.node[27].content_store 	decision_ratio[27] 	0.014092446448703
scalar tree_4_3_u06_r18_network.node[28].core_layer 	interests[28] 	13048
scalar tree_4_3_u06_r18_network.node[28].core_layer 	data[28] 	9017
scalar tree_4_3_u06_r18_network.node[28].content_store 	p_hit[28] 	0.30893623543838
scalar tree_4_3_u06_r18_network.node[28].content_store 	hits[28] 	4031
scalar tree_4_3_u06_r18_network.node[28].content_store 	misses[28] 	9017
scalar tree_4_3_u06_r18_network.node[28].content_store 	decision_yes[28] 	138
scalar tree_4_3_u06_r18_network.node[28].content_store 	decision_no[28] 	8879
scalar tree_4_3_u06_r18_network.node[28].content_store 	decision_ratio[28] 	0.015304424975047
scalar tree_4_3_u06_r18_network.node[29].core_layer 	interests[29] 	13039
scalar tree_4_3_u06_r18_network.node[29].core_layer 	data[29] 	8955
scalar tree_4_3_u06_r18_network.node[29].content_store 	p_hit[29] 	0.31321420354322
scalar tree_4_3_u06_r18_network.node[29].content_store 	hits[29] 	4084
scalar tree_4_3_u06_r18_network.node[29].content_store 	misses[29] 	8955
scalar tree_4_3_u06_r18_network.node[29].content_store 	decision_yes[29] 	126
scalar tree_4_3_u06_r18_network.node[29].content_store 	decision_no[29] 	8829
scalar tree_4_3_u06_r18_network.node[29].content_store 	decision_ratio[29] 	0.014070351758794
scalar tree_4_3_u06_r18_network.node[30].core_layer 	interests[30] 	12395
scalar tree_4_3_u06_r18_network.node[30].core_layer 	data[30] 	8920
scalar tree_4_3_u06_r18_network.node[30].content_store 	p_hit[30] 	0.28035498184752
scalar tree_4_3_u06_r18_network.node[30].content_store 	hits[30] 	3475
scalar tree_4_3_u06_r18_network.node[30].content_store 	misses[30] 	8920
scalar tree_4_3_u06_r18_network.node[30].content_store 	decision_yes[30] 	119
scalar tree_4_3_u06_r18_network.node[30].content_store 	decision_no[30] 	8801
scalar tree_4_3_u06_r18_network.node[30].content_store 	decision_ratio[30] 	0.013340807174888
scalar tree_4_3_u06_r18_network.node[31].core_layer 	interests[31] 	12550
scalar tree_4_3_u06_r18_network.node[31].core_layer 	data[31] 	8858
scalar tree_4_3_u06_r18_network.node[31].content_store 	p_hit[31] 	0.29418326693227
scalar tree_4_3_u06_r18_network.node[31].content_store 	hits[31] 	3692
scalar tree_4_3_u06_r18_network.node[31].content_store 	misses[31] 	8858
scalar tree_4_3_u06_r18_network.node[31].content_store 	decision_yes[31] 	135
scalar tree_4_3_u06_r18_network.node[31].content_store 	decision_no[31] 	8723
scalar tree_4_3_u06_r18_network.node[31].content_store 	decision_ratio[31] 	0.015240460600587
scalar tree_4_3_u06_r18_network.node[32].core_layer 	interests[32] 	12931
scalar tree_4_3_u06_r18_network.node[32].core_layer 	data[32] 	9097
scalar tree_4_3_u06_r18_network.node[32].content_store 	p_hit[32] 	0.296342123579
scalar tree_4_3_u06_r18_network.node[32].content_store 	hits[32] 	3832
scalar tree_4_3_u06_r18_network.node[32].content_store 	misses[32] 	9099
scalar tree_4_3_u06_r18_network.node[32].content_store 	decision_yes[32] 	126
scalar tree_4_3_u06_r18_network.node[32].content_store 	decision_no[32] 	8971
scalar tree_4_3_u06_r18_network.node[32].content_store 	decision_ratio[32] 	0.013850720017588
scalar tree_4_3_u06_r18_network.node[33].core_layer 	interests[33] 	12800
scalar tree_4_3_u06_r18_network.node[33].core_layer 	data[33] 	9036
scalar tree_4_3_u06_r18_network.node[33].content_store 	p_hit[33] 	0.293984375
scalar tree_4_3_u06_r18_network.node[33].content_store 	hits[33] 	3763
scalar tree_4_3_u06_r18_network.node[33].content_store 	misses[33] 	9037
scalar tree_4_3_u06_r18_network.node[33].content_store 	decision_yes[33] 	118
scalar tree_4_3_u06_r18_network.node[33].content_store 	decision_no[33] 	8918
scalar tree_4_3_u06_r18_network.node[33].content_store 	decision_ratio[33] 	0.013058875608676
scalar tree_4_3_u06_r18_network.node[34].core_layer 	interests[34] 	13309
scalar tree_4_3_u06_r18_network.node[34].core_layer 	data[34] 	8943
scalar tree_4_3_u06_r18_network.node[34].content_store 	p_hit[34] 	0.32804868885716
scalar tree_4_3_u06_r18_network.node[34].content_store 	hits[34] 	4366
scalar tree_4_3_u06_r18_network.node[34].content_store 	misses[34] 	8943
scalar tree_4_3_u06_r18_network.node[34].content_store 	decision_yes[34] 	127
scalar tree_4_3_u06_r18_network.node[34].content_store 	decision_no[34] 	8816
scalar tree_4_3_u06_r18_network.node[34].content_store 	decision_ratio[34] 	0.01420105110142
scalar tree_4_3_u06_r18_network.node[35].core_layer 	interests[35] 	12439
scalar tree_4_3_u06_r18_network.node[35].core_layer 	data[35] 	8845
scalar tree_4_3_u06_r18_network.node[35].content_store 	p_hit[35] 	0.28892997829408
scalar tree_4_3_u06_r18_network.node[35].content_store 	hits[35] 	3594
scalar tree_4_3_u06_r18_network.node[35].content_store 	misses[35] 	8845
scalar tree_4_3_u06_r18_network.node[35].content_store 	decision_yes[35] 	102
scalar tree_4_3_u06_r18_network.node[35].content_store 	decision_no[35] 	8743
scalar tree_4_3_u06_r18_network.node[35].content_store 	decision_ratio[35] 	0.011531938948559
scalar tree_4_3_u06_r18_network.node[36].core_layer 	interests[36] 	12618
scalar tree_4_3_u06_r18_network.node[36].core_layer 	data[36] 	8998
scalar tree_4_3_u06_r18_network.node[36].content_store 	p_hit[36] 	0.28689174195594
scalar tree_4_3_u06_r18_network.node[36].content_store 	hits[36] 	3620
scalar tree_4_3_u06_r18_network.node[36].content_store 	misses[36] 	8998
scalar tree_4_3_u06_r18_network.node[36].content_store 	decision_yes[36] 	115
scalar tree_4_3_u06_r18_network.node[36].content_store 	decision_no[36] 	8883
scalar tree_4_3_u06_r18_network.node[36].content_store 	decision_ratio[36] 	0.012780617915092
scalar tree_4_3_u06_r18_network.node[37].core_layer 	interests[37] 	12550
scalar tree_4_3_u06_r18_network.node[37].core_layer 	data[37] 	8937
scalar tree_4_3_u06_r18_network.node[37].content_store 	p_hit[37] 	0.28788844621514
scalar tree_4_3_u06_r18_network.node[37].content_store 	hits[37] 	3613
scalar tree_4_3_u06_r18_network.node[37].content_store 	misses[37] 	8937
scalar tree_4_3_u06_r18_network.node[37].content_store 	decision_yes[37] 	107
scalar tree_4_3_u06_r18_network.node[37].content_store 	decision_no[37] 	8830
scalar tree_4_3_u06_r18_network.node[37].content_store 	decision_ratio[37] 	0.011972697773302
scalar tree_4_3_u06_r18_network.node[38].core_layer 	interests[38] 	12471
scalar tree_4_3_u06_r18_network.node[38].core_layer 	data[38] 	8858
scalar tree_4_3_u06_r18_network.node[38].content_store 	p_hit[38] 	0.28971213214658
scalar tree_4_3_u06_r18_network.node[38].content_store 	hits[38] 	3613
scalar tree_4_3_u06_r18_network.node[38].content_store 	misses[38] 	8858
scalar tree_4_3_u06_r18_network.node[38].content_store 	decision_yes[38] 	109
scalar tree_4_3_u06_r18_network.node[38].content_store 	decision_no[38] 	8749
scalar tree_4_3_u06_r18_network.node[38].content_store 	decision_ratio[38] 	0.012305260781215
scalar tree_4_3_u06_r18_network.node[39].core_layer 	interests[39] 	12396
scalar tree_4_3_u06_r18_network.node[39].core_layer 	data[39] 	8755
scalar tree_4_3_u06_r18_network.node[39].content_store 	p_hit[39] 	0.29372378186512
scalar tree_4_3_u06_r18_network.node[39].content_store 	hits[39] 	3641
scalar tree_4_3_u06_r18_network.node[39].content_store 	misses[39] 	8755
scalar tree_4_3_u06_r18_network.node[39].content_store 	decision_yes[39] 	122
scalar tree_4_3_u06_r18_network.node[39].content_store 	decision_no[39] 	8633
scalar tree_4_3_u06_r18_network.node[39].content_store 	decision_ratio[39] 	0.013934894346088
scalar tree_4_3_u06_r18_network.client[13] 	hdistance[13] 	2.7133794694348
scalar tree_4_3_u06_r18_network.client[13] 	downloads[13] 	12138
scalar tree_4_3_u06_r18_network.client[13] 	avg_time[13] 	0.004230018415
scalar tree_4_3_u06_r18_network.client[14] 	hdistance[14] 	2.7189216175736
scalar tree_4_3_u06_r18_network.client[14] 	downloads[14] 	12018
scalar tree_4_3_u06_r18_network.client[14] 	avg_time[14] 	0.004237806948
scalar tree_4_3_u06_r18_network.client[15] 	hdistance[15] 	2.5978343625751
scalar tree_4_3_u06_r18_network.client[15] 	downloads[15] 	11821
scalar tree_4_3_u06_r18_network.client[15] 	avg_time[15] 	0.004076471116
scalar tree_4_3_u06_r18_network.client[16] 	hdistance[16] 	2.6237096237096
scalar tree_4_3_u06_r18_network.client[16] 	downloads[16] 	12012
scalar tree_4_3_u06_r18_network.client[16] 	avg_time[16] 	0.004135741415
scalar tree_4_3_u06_r18_network.client[17] 	hdistance[17] 	2.7030141103782
scalar tree_4_3_u06_r18_network.client[17] 	downloads[17] 	11977
scalar tree_4_3_u06_r18_network.client[17] 	avg_time[17] 	0.004285210334
scalar tree_4_3_u06_r18_network.client[18] 	hdistance[18] 	2.6938234807087
scalar tree_4_3_u06_r18_network.client[18] 	downloads[18] 	12078
scalar tree_4_3_u06_r18_network.client[18] 	avg_time[18] 	0.004265798736
scalar tree_4_3_u06_r18_network.client[19] 	hdistance[19] 	2.6297218762972
scalar tree_4_3_u06_r18_network.client[19] 	downloads[19] 	12045
scalar tree_4_3_u06_r18_network.client[19] 	avg_time[19] 	0.004137979554
scalar tree_4_3_u06_r18_network.client[20] 	hdistance[20] 	2.6375596119059
scalar tree_4_3_u06_r18_network.client[20] 	downloads[20] 	12162
scalar tree_4_3_u06_r18_network.client[20] 	avg_time[20] 	0.00417463928
scalar tree_4_3_u06_r18_network.client[21] 	hdistance[21] 	2.6926460823373
scalar tree_4_3_u06_r18_network.client[21] 	downloads[21] 	12048
scalar tree_4_3_u06_r18_network.client[21] 	avg_time[21] 	0.004239206819
scalar tree_4_3_u06_r18_network.client[22] 	hdistance[22] 	2.7145451543668
scalar tree_4_3_u06_r18_network.client[22] 	downloads[22] 	12114
scalar tree_4_3_u06_r18_network.client[22] 	avg_time[22] 	0.004263658841
scalar tree_4_3_u06_r18_network.client[23] 	hdistance[23] 	2.6102880658436
scalar tree_4_3_u06_r18_network.client[23] 	downloads[23] 	12150
scalar tree_4_3_u06_r18_network.client[23] 	avg_time[23] 	0.004077703689
scalar tree_4_3_u06_r18_network.client[24] 	hdistance[24] 	2.620272188361
scalar tree_4_3_u06_r18_network.client[24] 	downloads[24] 	11977
scalar tree_4_3_u06_r18_network.client[24] 	avg_time[24] 	0.004120245387
scalar tree_4_3_u06_r18_network.client[25] 	hdistance[25] 	2.6458088358811
scalar tree_4_3_u06_r18_network.client[25] 	downloads[25] 	11906
scalar tree_4_3_u06_r18_network.client[25] 	avg_time[25] 	0.004131527325
scalar tree_4_3_u06_r18_network.client[26] 	hdistance[26] 	2.7195183140993
scalar tree_4_3_u06_r18_network.client[26] 	downloads[26] 	11958
scalar tree_4_3_u06_r18_network.client[26] 	avg_time[26] 	0.004266095031
scalar tree_4_3_u06_r18_network.client[27] 	hdistance[27] 	2.714549886526
scalar tree_4_3_u06_r18_network.client[27] 	downloads[27] 	11897
scalar tree_4_3_u06_r18_network.client[27] 	avg_time[27] 	0.004253270974
scalar tree_4_3_u06_r18_network.client[28] 	hdistance[28] 	2.6409826444202
scalar tree_4_3_u06_r18_network.client[28] 	downloads[28] 	11927
scalar tree_4_3_u06_r18_network.client[28] 	avg_time[28] 	0.004161861632
scalar tree_4_3_u06_r18_network.client[29] 	hdistance[29] 	2.6244508910071
scalar tree_4_3_u06_r18_network.client[29] 	downloads[29] 	12065
scalar tree_4_3_u06_r18_network.client[29] 	avg_time[29] 	0.004120179321
scalar tree_4_3_u06_r18_network.client[30] 	hdistance[30] 	2.6860357712654
scalar tree_4_3_u06_r18_network.client[30] 	downloads[30] 	11909
scalar tree_4_3_u06_r18_network.client[30] 	avg_time[30] 	0.004246533252
scalar tree_4_3_u06_r18_network.client[31] 	hdistance[31] 	2.704053256931
scalar tree_4_3_u06_r18_network.client[31] 	downloads[31] 	11867
scalar tree_4_3_u06_r18_network.client[31] 	avg_time[31] 	0.004264933406
scalar tree_4_3_u06_r18_network.client[32] 	hdistance[32] 	2.6669928245271
scalar tree_4_3_u06_r18_network.client[32] 	downloads[32] 	12264
scalar tree_4_3_u06_r18_network.client[32] 	avg_time[32] 	0.004220153505
scalar tree_4_3_u06_r18_network.client[33] 	hdistance[33] 	2.687918077463
scalar tree_4_3_u06_r18_network.client[33] 	downloads[33] 	12109
scalar tree_4_3_u06_r18_network.client[33] 	avg_time[33] 	0.004246320861
scalar tree_4_3_u06_r18_network.client[34] 	hdistance[34] 	2.6250104210088
scalar tree_4_3_u06_r18_network.client[34] 	downloads[34] 	11995
scalar tree_4_3_u06_r18_network.client[34] 	avg_time[34] 	0.004143479875
scalar tree_4_3_u06_r18_network.client[35] 	hdistance[35] 	2.7022382429374
scalar tree_4_3_u06_r18_network.client[35] 	downloads[35] 	11929
scalar tree_4_3_u06_r18_network.client[35] 	avg_time[35] 	0.004271771672
scalar tree_4_3_u06_r18_network.client[36] 	hdistance[36] 	2.6933454726039
scalar tree_4_3_u06_r18_network.client[36] 	downloads[36] 	12082
scalar tree_4_3_u06_r18_network.client[36] 	avg_time[36] 	0.004267198959
scalar tree_4_3_u06_r18_network.client[37] 	hdistance[37] 	2.7165510406343
scalar tree_4_3_u06_r18_network.client[37] 	downloads[37] 	12108
scalar tree_4_3_u06_r18_network.client[37] 	avg_time[37] 	0.004258173393
scalar tree_4_3_u06_r18_network.client[38] 	hdistance[38] 	2.7226038873995
scalar tree_4_3_u06_r18_network.client[38] 	downloads[38] 	11936
scalar tree_4_3_u06_r18_network.client[38] 	avg_time[38] 	0.004271947416
scalar tree_4_3_u06_r18_network.client[39] 	hdistance[39] 	2.7044268641643
scalar tree_4_3_u06_r18_network.client[39] 	downloads[39] 	11882
scalar tree_4_3_u06_r18_network.client[39] 	avg_time[39] 	0.004244905285
