version 2
run General-124-20160902-14:34:46-7280
attr a 0.9
attr cd wfc0.01
attr configname General
attr cr lru
attr datetime 20160902-14:34:46
attr experiment General
attr fsize 1
attr inifile hw5115/scenario_Y/omnetp.ini
attr iterationvars "$name=tree_4_3, $un=06, $rep=5, $cd=wfc0.01, $cr=lru, $fsize=1, $a=0.9, $sl=nrr, $ttl=1000, $variance=0.05"
attr iterationvars2 "$name=tree_4_3, $un=06, $rep=5, $cd=wfc0.01, $cr=lru, $fsize=1, $a=0.9, $sl=nrr, $ttl=1000, $variance=0.05, $repetition=0"
attr measurement "$name=tree_4_3, $un=06, $rep=5, $cd=wfc0.01, $cr=lru, $fsize=1, $a=0.9, $sl=nrr, $ttl=1000, $variance=0.05"
attr name tree_4_3
attr network networks.${name}_u${un}_r${rep}_network
attr processid 7280
attr rep 5
attr repetition 0
attr replication #0
attr resultdir results
attr runnumber 124
attr seedset 5
attr sl nrr
attr ttl 1000
attr un 06
attr variance 0.05

scalar . 	a 	0.9
scalar . 	fsize 	1
scalar . 	rep 	5
scalar . 	ttl 	1000
scalar . 	un 	06
scalar . 	variance 	0.05
scalar tree_4_3_u06_r5_network.content_distribution 	repo-0 	0
scalar tree_4_3_u06_r5_network.content_distribution 	client-0 	13
scalar tree_4_3_u06_r5_network.content_distribution 	client-1 	14
scalar tree_4_3_u06_r5_network.content_distribution 	client-2 	15
scalar tree_4_3_u06_r5_network.content_distribution 	client-3 	16
scalar tree_4_3_u06_r5_network.content_distribution 	client-4 	17
scalar tree_4_3_u06_r5_network.content_distribution 	client-5 	18
scalar tree_4_3_u06_r5_network.content_distribution 	client-6 	19
scalar tree_4_3_u06_r5_network.content_distribution 	client-7 	20
scalar tree_4_3_u06_r5_network.content_distribution 	client-8 	21
scalar tree_4_3_u06_r5_network.content_distribution 	client-9 	22
scalar tree_4_3_u06_r5_network.content_distribution 	client-10 	23
scalar tree_4_3_u06_r5_network.content_distribution 	client-11 	24
scalar tree_4_3_u06_r5_network.content_distribution 	client-12 	25
scalar tree_4_3_u06_r5_network.content_distribution 	client-13 	26
scalar tree_4_3_u06_r5_network.content_distribution 	client-14 	27
scalar tree_4_3_u06_r5_network.content_distribution 	client-15 	28
scalar tree_4_3_u06_r5_network.content_distribution 	client-16 	29
scalar tree_4_3_u06_r5_network.content_distribution 	client-17 	30
scalar tree_4_3_u06_r5_network.content_distribution 	client-18 	31
scalar tree_4_3_u06_r5_network.content_distribution 	client-19 	32
scalar tree_4_3_u06_r5_network.content_distribution 	client-20 	33
scalar tree_4_3_u06_r5_network.content_distribution 	client-21 	34
scalar tree_4_3_u06_r5_network.content_distribution 	client-22 	35
scalar tree_4_3_u06_r5_network.content_distribution 	client-23 	36
scalar tree_4_3_u06_r5_network.content_distribution 	client-24 	37
scalar tree_4_3_u06_r5_network.content_distribution 	client-25 	38
scalar tree_4_3_u06_r5_network.content_distribution 	client-26 	39
scalar tree_4_3_u06_r5_network.content_distribution 	repo-0_card 	100000
scalar tree_4_3_u06_r5_network.content_distribution 	repo-0_price 	0
scalar tree_4_3_u06_r5_network.statistics 	stabilization_time 	1192
scalar tree_4_3_u06_r5_network.statistics 	p_hit 	0.23253961137455
scalar tree_4_3_u06_r5_network.statistics 	interests 	25165.175
scalar tree_4_3_u06_r5_network.statistics 	data 	17043.475
scalar tree_4_3_u06_r5_network.statistics 	hdistance 	2.674107701447
scalar tree_4_3_u06_r5_network.statistics 	avg_time 	0.004197015691
scalar tree_4_3_u06_r5_network.statistics 	downloads 	324873
scalar tree_4_3_u06_r5_network.statistics 	total_cost 	0
scalar tree_4_3_u06_r5_network.statistics 	total_replicas 	100000
scalar tree_4_3_u06_r5_network.statistics 	inner_hit 	0.42442123537505
scalar tree_4_3_u06_r5_network.node[0].core_layer 	interests[0] 	189254
scalar tree_4_3_u06_r5_network.node[0].core_layer 	repo_load[0] 	186990
scalar tree_4_3_u06_r5_network.node[0].core_layer 	data[0] 	0
scalar tree_4_3_u06_r5_network.node[0].core_layer 	repo_int[0] 	186990
scalar tree_4_3_u06_r5_network.node[0].content_store 	p_hit[0] 	0.011962759043402
scalar tree_4_3_u06_r5_network.node[0].content_store 	hits[0] 	2264
scalar tree_4_3_u06_r5_network.node[0].content_store 	misses[0] 	186990
scalar tree_4_3_u06_r5_network.node[0].content_store 	decision_yes[0] 	2737
scalar tree_4_3_u06_r5_network.node[0].content_store 	decision_no[0] 	184253
scalar tree_4_3_u06_r5_network.node[0].content_store 	decision_ratio[0] 	0.014637146371464
scalar tree_4_3_u06_r5_network.node[1].core_layer 	interests[1] 	103937
scalar tree_4_3_u06_r5_network.node[1].core_layer 	data[1] 	102369
scalar tree_4_3_u06_r5_network.node[1].content_store 	p_hit[1] 	0.015066819323244
scalar tree_4_3_u06_r5_network.node[1].content_store 	hits[1] 	1566
scalar tree_4_3_u06_r5_network.node[1].content_store 	misses[1] 	102371
scalar tree_4_3_u06_r5_network.node[1].content_store 	decision_yes[1] 	1126
scalar tree_4_3_u06_r5_network.node[1].content_store 	decision_no[1] 	101243
scalar tree_4_3_u06_r5_network.node[1].content_store 	decision_ratio[1] 	0.010999423653645
scalar tree_4_3_u06_r5_network.node[2].core_layer 	interests[2] 	90891
scalar tree_4_3_u06_r5_network.node[2].core_layer 	data[2] 	87875
scalar tree_4_3_u06_r5_network.node[2].content_store 	p_hit[2] 	0.033171601148629
scalar tree_4_3_u06_r5_network.node[2].content_store 	hits[2] 	3015
scalar tree_4_3_u06_r5_network.node[2].content_store 	misses[2] 	87876
scalar tree_4_3_u06_r5_network.node[2].content_store 	decision_yes[2] 	1156
scalar tree_4_3_u06_r5_network.node[2].content_store 	decision_no[2] 	86719
scalar tree_4_3_u06_r5_network.node[2].content_store 	decision_ratio[2] 	0.013155049786629
scalar tree_4_3_u06_r5_network.node[3].core_layer 	interests[3] 	18503
scalar tree_4_3_u06_r5_network.node[3].core_layer 	data[3] 	16557
scalar tree_4_3_u06_r5_network.node[3].content_store 	p_hit[3] 	0.1051721342485
scalar tree_4_3_u06_r5_network.node[3].content_store 	hits[3] 	1946
scalar tree_4_3_u06_r5_network.node[3].content_store 	misses[3] 	16557
scalar tree_4_3_u06_r5_network.node[3].content_store 	decision_yes[3] 	230
scalar tree_4_3_u06_r5_network.node[3].content_store 	decision_no[3] 	16327
scalar tree_4_3_u06_r5_network.node[3].content_store 	decision_ratio[3] 	0.013891405447847
scalar tree_4_3_u06_r5_network.node[4].core_layer 	interests[4] 	42467
scalar tree_4_3_u06_r5_network.node[4].core_layer 	data[4] 	40283
scalar tree_4_3_u06_r5_network.node[4].content_store 	p_hit[4] 	0.051428167753785
scalar tree_4_3_u06_r5_network.node[4].content_store 	hits[4] 	2184
scalar tree_4_3_u06_r5_network.node[4].content_store 	misses[4] 	40283
scalar tree_4_3_u06_r5_network.node[4].content_store 	decision_yes[4] 	566
scalar tree_4_3_u06_r5_network.node[4].content_store 	decision_no[4] 	39717
scalar tree_4_3_u06_r5_network.node[4].content_store 	decision_ratio[4] 	0.014050592061167
scalar tree_4_3_u06_r5_network.node[5].core_layer 	interests[5] 	32591
scalar tree_4_3_u06_r5_network.node[5].core_layer 	data[5] 	28217
scalar tree_4_3_u06_r5_network.node[5].content_store 	p_hit[5] 	0.13420883065877
scalar tree_4_3_u06_r5_network.node[5].content_store 	hits[5] 	4374
scalar tree_4_3_u06_r5_network.node[5].content_store 	misses[5] 	28217
scalar tree_4_3_u06_r5_network.node[5].content_store 	decision_yes[5] 	582
scalar tree_4_3_u06_r5_network.node[5].content_store 	decision_no[5] 	27635
scalar tree_4_3_u06_r5_network.node[5].content_store 	decision_ratio[5] 	0.020625863840947
scalar tree_4_3_u06_r5_network.node[6].core_layer 	interests[6] 	11447
scalar tree_4_3_u06_r5_network.node[6].core_layer 	data[6] 	9050
scalar tree_4_3_u06_r5_network.node[6].content_store 	p_hit[6] 	0.20939984275356
scalar tree_4_3_u06_r5_network.node[6].content_store 	hits[6] 	2397
scalar tree_4_3_u06_r5_network.node[6].content_store 	misses[6] 	9050
scalar tree_4_3_u06_r5_network.node[6].content_store 	decision_yes[6] 	210
scalar tree_4_3_u06_r5_network.node[6].content_store 	decision_no[6] 	8840
scalar tree_4_3_u06_r5_network.node[6].content_store 	decision_ratio[6] 	0.023204419889503
scalar tree_4_3_u06_r5_network.node[7].core_layer 	interests[7] 	45363
scalar tree_4_3_u06_r5_network.node[7].core_layer 	data[7] 	42452
scalar tree_4_3_u06_r5_network.node[7].content_store 	p_hit[7] 	0.064127152084298
scalar tree_4_3_u06_r5_network.node[7].content_store 	hits[7] 	2909
scalar tree_4_3_u06_r5_network.node[7].content_store 	misses[7] 	42454
scalar tree_4_3_u06_r5_network.node[7].content_store 	decision_yes[7] 	647
scalar tree_4_3_u06_r5_network.node[7].content_store 	decision_no[7] 	41805
scalar tree_4_3_u06_r5_network.node[7].content_store 	decision_ratio[7] 	0.015240742485631
scalar tree_4_3_u06_r5_network.node[8].core_layer 	interests[8] 	20690
scalar tree_4_3_u06_r5_network.node[8].core_layer 	data[8] 	17838
scalar tree_4_3_u06_r5_network.node[8].content_store 	p_hit[8] 	0.1378927017883
scalar tree_4_3_u06_r5_network.node[8].content_store 	hits[8] 	2853
scalar tree_4_3_u06_r5_network.node[8].content_store 	misses[8] 	17837
scalar tree_4_3_u06_r5_network.node[8].content_store 	decision_yes[8] 	305
scalar tree_4_3_u06_r5_network.node[8].content_store 	decision_no[8] 	17533
scalar tree_4_3_u06_r5_network.node[8].content_store 	decision_ratio[8] 	0.017098329409127
scalar tree_4_3_u06_r5_network.node[9].core_layer 	interests[9] 	19925
scalar tree_4_3_u06_r5_network.node[9].core_layer 	data[9] 	17663
scalar tree_4_3_u06_r5_network.node[9].content_store 	p_hit[9] 	0.11357590966123
scalar tree_4_3_u06_r5_network.node[9].content_store 	hits[9] 	2263
scalar tree_4_3_u06_r5_network.node[9].content_store 	misses[9] 	17662
scalar tree_4_3_u06_r5_network.node[9].content_store 	decision_yes[9] 	307
scalar tree_4_3_u06_r5_network.node[9].content_store 	decision_no[9] 	17356
scalar tree_4_3_u06_r5_network.node[9].content_store 	decision_ratio[9] 	0.017380965860839
scalar tree_4_3_u06_r5_network.node[10].core_layer 	interests[10] 	44657
scalar tree_4_3_u06_r5_network.node[10].core_layer 	data[10] 	41650
scalar tree_4_3_u06_r5_network.node[10].content_store 	p_hit[10] 	0.067245896499989
scalar tree_4_3_u06_r5_network.node[10].content_store 	hits[10] 	3003
scalar tree_4_3_u06_r5_network.node[10].content_store 	misses[10] 	41654
scalar tree_4_3_u06_r5_network.node[10].content_store 	decision_yes[10] 	629
scalar tree_4_3_u06_r5_network.node[10].content_store 	decision_no[10] 	41021
scalar tree_4_3_u06_r5_network.node[10].content_store 	decision_ratio[10] 	0.015102040816327
scalar tree_4_3_u06_r5_network.node[11].core_layer 	interests[11] 	22654
scalar tree_4_3_u06_r5_network.node[11].core_layer 	data[11] 	19128
scalar tree_4_3_u06_r5_network.node[11].content_store 	p_hit[11] 	0.15564580206586
scalar tree_4_3_u06_r5_network.node[11].content_store 	hits[11] 	3526
scalar tree_4_3_u06_r5_network.node[11].content_store 	misses[11] 	19128
scalar tree_4_3_u06_r5_network.node[11].content_store 	decision_yes[11] 	398
scalar tree_4_3_u06_r5_network.node[11].content_store 	decision_no[11] 	18730
scalar tree_4_3_u06_r5_network.node[11].content_store 	decision_ratio[11] 	0.020807193642827
scalar tree_4_3_u06_r5_network.node[12].core_layer 	interests[12] 	19143
scalar tree_4_3_u06_r5_network.node[12].core_layer 	data[12] 	17265
scalar tree_4_3_u06_r5_network.node[12].content_store 	p_hit[12] 	0.098103745494437
scalar tree_4_3_u06_r5_network.node[12].content_store 	hits[12] 	1878
scalar tree_4_3_u06_r5_network.node[12].content_store 	misses[12] 	17265
scalar tree_4_3_u06_r5_network.node[12].content_store 	decision_yes[12] 	275
scalar tree_4_3_u06_r5_network.node[12].content_store 	decision_no[12] 	16990
scalar tree_4_3_u06_r5_network.node[12].content_store 	decision_ratio[12] 	0.015928178395598
scalar tree_4_3_u06_r5_network.node[13].core_layer 	interests[13] 	12435
scalar tree_4_3_u06_r5_network.node[13].core_layer 	data[13] 	8825
scalar tree_4_3_u06_r5_network.node[13].content_store 	p_hit[13] 	0.29039002814636
scalar tree_4_3_u06_r5_network.node[13].content_store 	hits[13] 	3611
scalar tree_4_3_u06_r5_network.node[13].content_store 	misses[13] 	8824
scalar tree_4_3_u06_r5_network.node[13].content_store 	decision_yes[13] 	123
scalar tree_4_3_u06_r5_network.node[13].content_store 	decision_no[13] 	8702
scalar tree_4_3_u06_r5_network.node[13].content_store 	decision_ratio[13] 	0.013937677053824
scalar tree_4_3_u06_r5_network.node[14].core_layer 	interests[14] 	12978
scalar tree_4_3_u06_r5_network.node[14].core_layer 	data[14] 	8796
scalar tree_4_3_u06_r5_network.node[14].content_store 	p_hit[14] 	0.32231468639236
scalar tree_4_3_u06_r5_network.node[14].content_store 	hits[14] 	4183
scalar tree_4_3_u06_r5_network.node[14].content_store 	misses[14] 	8795
scalar tree_4_3_u06_r5_network.node[14].content_store 	decision_yes[14] 	131
scalar tree_4_3_u06_r5_network.node[14].content_store 	decision_no[14] 	8665
scalar tree_4_3_u06_r5_network.node[14].content_store 	decision_ratio[14] 	0.014893133242383
scalar tree_4_3_u06_r5_network.node[15].core_layer 	interests[15] 	12923
scalar tree_4_3_u06_r5_network.node[15].core_layer 	data[15] 	9035
scalar tree_4_3_u06_r5_network.node[15].content_store 	p_hit[15] 	0.30085893368413
scalar tree_4_3_u06_r5_network.node[15].content_store 	hits[15] 	3888
scalar tree_4_3_u06_r5_network.node[15].content_store 	misses[15] 	9035
scalar tree_4_3_u06_r5_network.node[15].content_store 	decision_yes[15] 	159
scalar tree_4_3_u06_r5_network.node[15].content_store 	decision_no[15] 	8876
scalar tree_4_3_u06_r5_network.node[15].content_store 	decision_ratio[15] 	0.01759822910902
scalar tree_4_3_u06_r5_network.node[16].core_layer 	interests[16] 	13431
scalar tree_4_3_u06_r5_network.node[16].core_layer 	data[16] 	9074
scalar tree_4_3_u06_r5_network.node[16].content_store 	p_hit[16] 	0.32439877894423
scalar tree_4_3_u06_r5_network.node[16].content_store 	hits[16] 	4357
scalar tree_4_3_u06_r5_network.node[16].content_store 	misses[16] 	9074
scalar tree_4_3_u06_r5_network.node[16].content_store 	decision_yes[16] 	134
scalar tree_4_3_u06_r5_network.node[16].content_store 	decision_no[16] 	8940
scalar tree_4_3_u06_r5_network.node[16].content_store 	decision_ratio[16] 	0.014767467489531
scalar tree_4_3_u06_r5_network.node[17].core_layer 	interests[17] 	12904
scalar tree_4_3_u06_r5_network.node[17].core_layer 	data[17] 	9012
scalar tree_4_3_u06_r5_network.node[17].content_store 	p_hit[17] 	0.3016119032858
scalar tree_4_3_u06_r5_network.node[17].content_store 	hits[17] 	3892
scalar tree_4_3_u06_r5_network.node[17].content_store 	misses[17] 	9012
scalar tree_4_3_u06_r5_network.node[17].content_store 	decision_yes[17] 	116
scalar tree_4_3_u06_r5_network.node[17].content_store 	decision_no[17] 	8896
scalar tree_4_3_u06_r5_network.node[17].content_store 	decision_ratio[17] 	0.012871726586773
scalar tree_4_3_u06_r5_network.node[18].core_layer 	interests[18] 	12731
scalar tree_4_3_u06_r5_network.node[18].core_layer 	data[18] 	8883
scalar tree_4_3_u06_r5_network.node[18].content_store 	p_hit[18] 	0.30225433980049
scalar tree_4_3_u06_r5_network.node[18].content_store 	hits[18] 	3848
scalar tree_4_3_u06_r5_network.node[18].content_store 	misses[18] 	8883
scalar tree_4_3_u06_r5_network.node[18].content_store 	decision_yes[18] 	136
scalar tree_4_3_u06_r5_network.node[18].content_store 	decision_no[18] 	8747
scalar tree_4_3_u06_r5_network.node[18].content_store 	decision_ratio[18] 	0.015310142969717
scalar tree_4_3_u06_r5_network.node[19].core_layer 	interests[19] 	12985
scalar tree_4_3_u06_r5_network.node[19].core_layer 	data[19] 	9010
scalar tree_4_3_u06_r5_network.node[19].content_store 	p_hit[19] 	0.30612244897959
scalar tree_4_3_u06_r5_network.node[19].content_store 	hits[19] 	3975
scalar tree_4_3_u06_r5_network.node[19].content_store 	misses[19] 	9010
scalar tree_4_3_u06_r5_network.node[19].content_store 	decision_yes[19] 	143
scalar tree_4_3_u06_r5_network.node[19].content_store 	decision_no[19] 	8867
scalar tree_4_3_u06_r5_network.node[19].content_store 	decision_ratio[19] 	0.015871254162042
scalar tree_4_3_u06_r5_network.node[20].core_layer 	interests[20] 	13038
scalar tree_4_3_u06_r5_network.node[20].core_layer 	data[20] 	8901
scalar tree_4_3_u06_r5_network.node[20].content_store 	p_hit[20] 	0.3173032673723
scalar tree_4_3_u06_r5_network.node[20].content_store 	hits[20] 	4137
scalar tree_4_3_u06_r5_network.node[20].content_store 	misses[20] 	8901
scalar tree_4_3_u06_r5_network.node[20].content_store 	decision_yes[20] 	144
scalar tree_4_3_u06_r5_network.node[20].content_store 	decision_no[20] 	8757
scalar tree_4_3_u06_r5_network.node[20].content_store 	decision_ratio[20] 	0.016177957532861
scalar tree_4_3_u06_r5_network.node[21].core_layer 	interests[21] 	12136
scalar tree_4_3_u06_r5_network.node[21].core_layer 	data[21] 	8848
scalar tree_4_3_u06_r5_network.node[21].content_store 	p_hit[21] 	0.27092946605142
scalar tree_4_3_u06_r5_network.node[21].content_store 	hits[21] 	3288
scalar tree_4_3_u06_r5_network.node[21].content_store 	misses[21] 	8848
scalar tree_4_3_u06_r5_network.node[21].content_store 	decision_yes[21] 	136
scalar tree_4_3_u06_r5_network.node[21].content_store 	decision_no[21] 	8712
scalar tree_4_3_u06_r5_network.node[21].content_store 	decision_ratio[21] 	0.015370705244123
scalar tree_4_3_u06_r5_network.node[22].core_layer 	interests[22] 	12677
scalar tree_4_3_u06_r5_network.node[22].core_layer 	data[22] 	8956
scalar tree_4_3_u06_r5_network.node[22].content_store 	p_hit[22] 	0.29352370434645
scalar tree_4_3_u06_r5_network.node[22].content_store 	hits[22] 	3721
scalar tree_4_3_u06_r5_network.node[22].content_store 	misses[22] 	8956
scalar tree_4_3_u06_r5_network.node[22].content_store 	decision_yes[22] 	129
scalar tree_4_3_u06_r5_network.node[22].content_store 	decision_no[22] 	8827
scalar tree_4_3_u06_r5_network.node[22].content_store 	decision_ratio[22] 	0.014403751674855
scalar tree_4_3_u06_r5_network.node[23].core_layer 	interests[23] 	12827
scalar tree_4_3_u06_r5_network.node[23].core_layer 	data[23] 	8954
scalar tree_4_3_u06_r5_network.node[23].content_store 	p_hit[23] 	0.30194121774382
scalar tree_4_3_u06_r5_network.node[23].content_store 	hits[23] 	3873
scalar tree_4_3_u06_r5_network.node[23].content_store 	misses[23] 	8954
scalar tree_4_3_u06_r5_network.node[23].content_store 	decision_yes[23] 	131
scalar tree_4_3_u06_r5_network.node[23].content_store 	decision_no[23] 	8823
scalar tree_4_3_u06_r5_network.node[23].content_store 	decision_ratio[23] 	0.014630332812151
scalar tree_4_3_u06_r5_network.node[24].core_layer 	interests[24] 	12667
scalar tree_4_3_u06_r5_network.node[24].core_layer 	data[24] 	9008
scalar tree_4_3_u06_r5_network.node[24].content_store 	p_hit[24] 	0.28886081945212
scalar tree_4_3_u06_r5_network.node[24].content_store 	hits[24] 	3659
scalar tree_4_3_u06_r5_network.node[24].content_store 	misses[24] 	9008
scalar tree_4_3_u06_r5_network.node[24].content_store 	decision_yes[24] 	130
scalar tree_4_3_u06_r5_network.node[24].content_store 	decision_no[24] 	8878
scalar tree_4_3_u06_r5_network.node[24].content_store 	decision_ratio[24] 	0.01443161634103
scalar tree_4_3_u06_r5_network.node[25].core_layer 	interests[25] 	13023
scalar tree_4_3_u06_r5_network.node[25].core_layer 	data[25] 	8893
scalar tree_4_3_u06_r5_network.node[25].content_store 	p_hit[25] 	0.31713122936343
scalar tree_4_3_u06_r5_network.node[25].content_store 	hits[25] 	4130
scalar tree_4_3_u06_r5_network.node[25].content_store 	misses[25] 	8893
scalar tree_4_3_u06_r5_network.node[25].content_store 	decision_yes[25] 	146
scalar tree_4_3_u06_r5_network.node[25].content_store 	decision_no[25] 	8747
scalar tree_4_3_u06_r5_network.node[25].content_store 	decision_ratio[25] 	0.016417406949286
scalar tree_4_3_u06_r5_network.node[26].core_layer 	interests[26] 	12495
scalar tree_4_3_u06_r5_network.node[26].core_layer 	data[26] 	8991
scalar tree_4_3_u06_r5_network.node[26].content_store 	p_hit[26] 	0.28043217286915
scalar tree_4_3_u06_r5_network.node[26].content_store 	hits[26] 	3504
scalar tree_4_3_u06_r5_network.node[26].content_store 	misses[26] 	8991
scalar tree_4_3_u06_r5_network.node[26].content_store 	decision_yes[26] 	113
scalar tree_4_3_u06_r5_network.node[26].content_store 	decision_no[26] 	8878
scalar tree_4_3_u06_r5_network.node[26].content_store 	decision_ratio[26] 	0.012568123679235
scalar tree_4_3_u06_r5_network.node[27].core_layer 	interests[27] 	12634
scalar tree_4_3_u06_r5_network.node[27].core_layer 	data[27] 	8990
scalar tree_4_3_u06_r5_network.node[27].content_store 	p_hit[27] 	0.28850720278613
scalar tree_4_3_u06_r5_network.node[27].content_store 	hits[27] 	3645
scalar tree_4_3_u06_r5_network.node[27].content_store 	misses[27] 	8989
scalar tree_4_3_u06_r5_network.node[27].content_store 	decision_yes[27] 	108
scalar tree_4_3_u06_r5_network.node[27].content_store 	decision_no[27] 	8882
scalar tree_4_3_u06_r5_network.node[27].content_store 	decision_ratio[27] 	0.012013348164627
scalar tree_4_3_u06_r5_network.node[28].core_layer 	interests[28] 	13088
scalar tree_4_3_u06_r5_network.node[28].core_layer 	data[28] 	8925
scalar tree_4_3_u06_r5_network.node[28].content_store 	p_hit[28] 	0.31807762836186
scalar tree_4_3_u06_r5_network.node[28].content_store 	hits[28] 	4163
scalar tree_4_3_u06_r5_network.node[28].content_store 	misses[28] 	8925
scalar tree_4_3_u06_r5_network.node[28].content_store 	decision_yes[28] 	134
scalar tree_4_3_u06_r5_network.node[28].content_store 	decision_no[28] 	8791
scalar tree_4_3_u06_r5_network.node[28].content_store 	decision_ratio[28] 	0.015014005602241
scalar tree_4_3_u06_r5_network.node[29].core_layer 	interests[29] 	12497
scalar tree_4_3_u06_r5_network.node[29].core_layer 	data[29] 	8890
scalar tree_4_3_u06_r5_network.node[29].content_store 	p_hit[29] 	0.28870929022966
scalar tree_4_3_u06_r5_network.node[29].content_store 	hits[29] 	3608
scalar tree_4_3_u06_r5_network.node[29].content_store 	misses[29] 	8889
scalar tree_4_3_u06_r5_network.node[29].content_store 	decision_yes[29] 	103
scalar tree_4_3_u06_r5_network.node[29].content_store 	decision_no[29] 	8787
scalar tree_4_3_u06_r5_network.node[29].content_store 	decision_ratio[29] 	0.011586051743532
scalar tree_4_3_u06_r5_network.node[30].core_layer 	interests[30] 	12390
scalar tree_4_3_u06_r5_network.node[30].core_layer 	data[30] 	8914
scalar tree_4_3_u06_r5_network.node[30].content_store 	p_hit[30] 	0.28054882970137
scalar tree_4_3_u06_r5_network.node[30].content_store 	hits[30] 	3476
scalar tree_4_3_u06_r5_network.node[30].content_store 	misses[30] 	8914
scalar tree_4_3_u06_r5_network.node[30].content_store 	decision_yes[30] 	141
scalar tree_4_3_u06_r5_network.node[30].content_store 	decision_no[30] 	8773
scalar tree_4_3_u06_r5_network.node[30].content_store 	decision_ratio[30] 	0.015817814673547
scalar tree_4_3_u06_r5_network.node[31].core_layer 	interests[31] 	12738
scalar tree_4_3_u06_r5_network.node[31].core_layer 	data[31] 	9088
scalar tree_4_3_u06_r5_network.node[31].content_store 	p_hit[31] 	0.2865441984613
scalar tree_4_3_u06_r5_network.node[31].content_store 	hits[31] 	3650
scalar tree_4_3_u06_r5_network.node[31].content_store 	misses[31] 	9088
scalar tree_4_3_u06_r5_network.node[31].content_store 	decision_yes[31] 	102
scalar tree_4_3_u06_r5_network.node[31].content_store 	decision_no[31] 	8986
scalar tree_4_3_u06_r5_network.node[31].content_store 	decision_ratio[31] 	0.011223591549296
scalar tree_4_3_u06_r5_network.node[32].core_layer 	interests[32] 	13366
scalar tree_4_3_u06_r5_network.node[32].core_layer 	data[32] 	9057
scalar tree_4_3_u06_r5_network.node[32].content_store 	p_hit[32] 	0.3223851563669
scalar tree_4_3_u06_r5_network.node[32].content_store 	hits[32] 	4309
scalar tree_4_3_u06_r5_network.node[32].content_store 	misses[32] 	9057
scalar tree_4_3_u06_r5_network.node[32].content_store 	decision_yes[32] 	130
scalar tree_4_3_u06_r5_network.node[32].content_store 	decision_no[32] 	8927
scalar tree_4_3_u06_r5_network.node[32].content_store 	decision_ratio[32] 	0.014353538699349
scalar tree_4_3_u06_r5_network.node[33].core_layer 	interests[33] 	12965
scalar tree_4_3_u06_r5_network.node[33].core_layer 	data[33] 	9053
scalar tree_4_3_u06_r5_network.node[33].content_store 	p_hit[33] 	0.30173544157347
scalar tree_4_3_u06_r5_network.node[33].content_store 	hits[33] 	3912
scalar tree_4_3_u06_r5_network.node[33].content_store 	misses[33] 	9053
scalar tree_4_3_u06_r5_network.node[33].content_store 	decision_yes[33] 	138
scalar tree_4_3_u06_r5_network.node[33].content_store 	decision_no[33] 	8915
scalar tree_4_3_u06_r5_network.node[33].content_store 	decision_ratio[33] 	0.015243565668839
scalar tree_4_3_u06_r5_network.node[34].core_layer 	interests[34] 	13045
scalar tree_4_3_u06_r5_network.node[34].core_layer 	data[34] 	8880
scalar tree_4_3_u06_r5_network.node[34].content_store 	p_hit[34] 	0.3192794174013
scalar tree_4_3_u06_r5_network.node[34].content_store 	hits[34] 	4165
scalar tree_4_3_u06_r5_network.node[34].content_store 	misses[34] 	8880
scalar tree_4_3_u06_r5_network.node[34].content_store 	decision_yes[34] 	116
scalar tree_4_3_u06_r5_network.node[34].content_store 	decision_no[34] 	8764
scalar tree_4_3_u06_r5_network.node[34].content_store 	decision_ratio[34] 	0.013063063063063
scalar tree_4_3_u06_r5_network.node[35].core_layer 	interests[35] 	12653
scalar tree_4_3_u06_r5_network.node[35].core_layer 	data[35] 	9029
scalar tree_4_3_u06_r5_network.node[35].content_store 	p_hit[35] 	0.2864142891014
scalar tree_4_3_u06_r5_network.node[35].content_store 	hits[35] 	3624
scalar tree_4_3_u06_r5_network.node[35].content_store 	misses[35] 	9029
scalar tree_4_3_u06_r5_network.node[35].content_store 	decision_yes[35] 	112
scalar tree_4_3_u06_r5_network.node[35].content_store 	decision_no[35] 	8917
scalar tree_4_3_u06_r5_network.node[35].content_store 	decision_ratio[35] 	0.012404474471149
scalar tree_4_3_u06_r5_network.node[36].core_layer 	interests[36] 	12516
scalar tree_4_3_u06_r5_network.node[36].core_layer 	data[36] 	8796
scalar tree_4_3_u06_r5_network.node[36].content_store 	p_hit[36] 	0.29713966123362
scalar tree_4_3_u06_r5_network.node[36].content_store 	hits[36] 	3719
scalar tree_4_3_u06_r5_network.node[36].content_store 	misses[36] 	8797
scalar tree_4_3_u06_r5_network.node[36].content_store 	decision_yes[36] 	119
scalar tree_4_3_u06_r5_network.node[36].content_store 	decision_no[36] 	8677
scalar tree_4_3_u06_r5_network.node[36].content_store 	decision_ratio[36] 	0.013528876762165
scalar tree_4_3_u06_r5_network.node[37].core_layer 	interests[37] 	13046
scalar tree_4_3_u06_r5_network.node[37].core_layer 	data[37] 	8916
scalar tree_4_3_u06_r5_network.node[37].content_store 	p_hit[37] 	0.31649547754101
scalar tree_4_3_u06_r5_network.node[37].content_store 	hits[37] 	4129
scalar tree_4_3_u06_r5_network.node[37].content_store 	misses[37] 	8917
scalar tree_4_3_u06_r5_network.node[37].content_store 	decision_yes[37] 	152
scalar tree_4_3_u06_r5_network.node[37].content_store 	decision_no[37] 	8764
scalar tree_4_3_u06_r5_network.node[37].content_store 	decision_ratio[37] 	0.017048003589053
scalar tree_4_3_u06_r5_network.node[38].core_layer 	interests[38] 	12491
scalar tree_4_3_u06_r5_network.node[38].core_layer 	data[38] 	8793
scalar tree_4_3_u06_r5_network.node[38].content_store 	p_hit[38] 	0.29605315827396
scalar tree_4_3_u06_r5_network.node[38].content_store 	hits[38] 	3698
scalar tree_4_3_u06_r5_network.node[38].content_store 	misses[38] 	8793
scalar tree_4_3_u06_r5_network.node[38].content_store 	decision_yes[38] 	106
scalar tree_4_3_u06_r5_network.node[38].content_store 	decision_no[38] 	8687
scalar tree_4_3_u06_r5_network.node[38].content_store 	decision_ratio[38] 	0.012055043784829
scalar tree_4_3_u06_r5_network.node[39].core_layer 	interests[39] 	12406
scalar tree_4_3_u06_r5_network.node[39].core_layer 	data[39] 	8875
scalar tree_4_3_u06_r5_network.node[39].content_store 	p_hit[39] 	0.28462034499436
scalar tree_4_3_u06_r5_network.node[39].content_store 	hits[39] 	3531
scalar tree_4_3_u06_r5_network.node[39].content_store 	misses[39] 	8875
scalar tree_4_3_u06_r5_network.node[39].content_store 	decision_yes[39] 	141
scalar tree_4_3_u06_r5_network.node[39].content_store 	decision_no[39] 	8734
scalar tree_4_3_u06_r5_network.node[39].content_store 	decision_ratio[39] 	0.015887323943662
scalar tree_4_3_u06_r5_network.client[13] 	hdistance[13] 	2.7029088775254
scalar tree_4_3_u06_r5_network.client[13] 	downloads[13] 	11929
scalar tree_4_3_u06_r5_network.client[13] 	avg_time[13] 	0.004229018737
scalar tree_4_3_u06_r5_network.client[14] 	hdistance[14] 	2.6170357173157
scalar tree_4_3_u06_r5_network.client[14] 	downloads[14] 	11787
scalar tree_4_3_u06_r5_network.client[14] 	avg_time[14] 	0.004134721733
scalar tree_4_3_u06_r5_network.client[15] 	hdistance[15] 	2.6653172504957
scalar tree_4_3_u06_r5_network.client[15] 	downloads[15] 	12104
scalar tree_4_3_u06_r5_network.client[15] 	avg_time[15] 	0.0041553175
scalar tree_4_3_u06_r5_network.client[16] 	hdistance[16] 	2.6257435558493
scalar tree_4_3_u06_r5_network.client[16] 	downloads[16] 	12104
scalar tree_4_3_u06_r5_network.client[16] 	avg_time[16] 	0.004144907738
scalar tree_4_3_u06_r5_network.client[17] 	hdistance[17] 	2.6684240876514
scalar tree_4_3_u06_r5_network.client[17] 	downloads[17] 	12139
scalar tree_4_3_u06_r5_network.client[17] 	avg_time[17] 	0.004221267213
scalar tree_4_3_u06_r5_network.client[18] 	hdistance[18] 	2.6607023968043
scalar tree_4_3_u06_r5_network.client[18] 	downloads[18] 	12016
scalar tree_4_3_u06_r5_network.client[18] 	avg_time[18] 	0.004217540284
scalar tree_4_3_u06_r5_network.client[19] 	hdistance[19] 	2.6527823510043
scalar tree_4_3_u06_r5_network.client[19] 	downloads[19] 	12148
scalar tree_4_3_u06_r5_network.client[19] 	avg_time[19] 	0.004133900311
scalar tree_4_3_u06_r5_network.client[20] 	hdistance[20] 	2.6259510074408
scalar tree_4_3_u06_r5_network.client[20] 	downloads[20] 	11961
scalar tree_4_3_u06_r5_network.client[20] 	avg_time[20] 	0.00413175854
scalar tree_4_3_u06_r5_network.client[21] 	hdistance[21] 	2.7397017942886
scalar tree_4_3_u06_r5_network.client[21] 	downloads[21] 	11871
scalar tree_4_3_u06_r5_network.client[21] 	avg_time[21] 	0.00429095822
scalar tree_4_3_u06_r5_network.client[22] 	hdistance[22] 	2.7105657237937
scalar tree_4_3_u06_r5_network.client[22] 	downloads[22] 	12020
scalar tree_4_3_u06_r5_network.client[22] 	avg_time[22] 	0.004263391308
scalar tree_4_3_u06_r5_network.client[23] 	hdistance[23] 	2.688252631579
scalar tree_4_3_u06_r5_network.client[23] 	downloads[23] 	11875
scalar tree_4_3_u06_r5_network.client[23] 	avg_time[23] 	0.004202944392
scalar tree_4_3_u06_r5_network.client[24] 	hdistance[24] 	2.701003566393
scalar tree_4_3_u06_r5_network.client[24] 	downloads[24] 	12057
scalar tree_4_3_u06_r5_network.client[24] 	avg_time[24] 	0.004244206398
scalar tree_4_3_u06_r5_network.client[25] 	hdistance[25] 	2.6673951416323
scalar tree_4_3_u06_r5_network.client[25] 	downloads[25] 	11897
scalar tree_4_3_u06_r5_network.client[25] 	avg_time[25] 	0.004163140657
scalar tree_4_3_u06_r5_network.client[26] 	hdistance[26] 	2.7322036714013
scalar tree_4_3_u06_r5_network.client[26] 	downloads[26] 	12039
scalar tree_4_3_u06_r5_network.client[26] 	avg_time[26] 	0.00428872528
scalar tree_4_3_u06_r5_network.client[27] 	hdistance[27] 	2.6956735496559
scalar tree_4_3_u06_r5_network.client[27] 	downloads[27] 	12204
scalar tree_4_3_u06_r5_network.client[27] 	avg_time[27] 	0.004234343403
scalar tree_4_3_u06_r5_network.client[28] 	hdistance[28] 	2.6570952975447
scalar tree_4_3_u06_r5_network.client[28] 	downloads[28] 	12015
scalar tree_4_3_u06_r5_network.client[28] 	avg_time[28] 	0.004155309252
scalar tree_4_3_u06_r5_network.client[29] 	hdistance[29] 	2.7197220383852
scalar tree_4_3_u06_r5_network.client[29] 	downloads[29] 	12088
scalar tree_4_3_u06_r5_network.client[29] 	avg_time[29] 	0.004274980436
scalar tree_4_3_u06_r5_network.client[30] 	hdistance[30] 	2.7349116372124
scalar tree_4_3_u06_r5_network.client[30] 	downloads[30] 	11996
scalar tree_4_3_u06_r5_network.client[30] 	avg_time[30] 	0.004301264081
scalar tree_4_3_u06_r5_network.client[31] 	hdistance[31] 	2.6964197733618
scalar tree_4_3_u06_r5_network.client[31] 	downloads[31] 	12178
scalar tree_4_3_u06_r5_network.client[31] 	avg_time[31] 	0.004238459782
scalar tree_4_3_u06_r5_network.client[32] 	hdistance[32] 	2.6326598211328
scalar tree_4_3_u06_r5_network.client[32] 	downloads[32] 	12076
scalar tree_4_3_u06_r5_network.client[32] 	avg_time[32] 	0.004154872091
scalar tree_4_3_u06_r5_network.client[33] 	hdistance[33] 	2.6340901612372
scalar tree_4_3_u06_r5_network.client[33] 	downloads[33] 	12156
scalar tree_4_3_u06_r5_network.client[33] 	avg_time[33] 	0.004124568335
scalar tree_4_3_u06_r5_network.client[34] 	hdistance[34] 	2.6351374135896
scalar tree_4_3_u06_r5_network.client[34] 	downloads[34] 	11862
scalar tree_4_3_u06_r5_network.client[34] 	avg_time[34] 	0.004159120026
scalar tree_4_3_u06_r5_network.client[35] 	hdistance[35] 	2.6945662062691
scalar tree_4_3_u06_r5_network.client[35] 	downloads[35] 	12091
scalar tree_4_3_u06_r5_network.client[35] 	avg_time[35] 	0.004255889795
scalar tree_4_3_u06_r5_network.client[36] 	hdistance[36] 	2.6604137006951
scalar tree_4_3_u06_r5_network.client[36] 	downloads[36] 	11941
scalar tree_4_3_u06_r5_network.client[36] 	avg_time[36] 	0.004200266566
scalar tree_4_3_u06_r5_network.client[37] 	hdistance[37] 	2.6183313943826
scalar tree_4_3_u06_r5_network.client[37] 	downloads[37] 	12034
scalar tree_4_3_u06_r5_network.client[37] 	avg_time[37] 	0.004102539798
scalar tree_4_3_u06_r5_network.client[38] 	hdistance[38] 	2.677249547623
scalar tree_4_3_u06_r5_network.client[38] 	downloads[38] 	12158
scalar tree_4_3_u06_r5_network.client[38] 	avg_time[38] 	0.00413521658
scalar tree_4_3_u06_r5_network.client[39] 	hdistance[39] 	2.6866496248041
scalar tree_4_3_u06_r5_network.client[39] 	downloads[39] 	12127
scalar tree_4_3_u06_r5_network.client[39] 	avg_time[39] 	0.004160795206
