version 2
run General-121-20160902-14:30:11-7280
attr a 0.9
attr cd wfc0.01
attr configname General
attr cr lru
attr datetime 20160902-14:30:11
attr experiment General
attr fsize 1
attr inifile hw5115/scenario_Y/omnetp.ini
attr iterationvars "$name=tree_4_3, $un=06, $rep=2, $cd=wfc0.01, $cr=lru, $fsize=1, $a=0.9, $sl=nrr, $ttl=1000, $variance=0.05"
attr iterationvars2 "$name=tree_4_3, $un=06, $rep=2, $cd=wfc0.01, $cr=lru, $fsize=1, $a=0.9, $sl=nrr, $ttl=1000, $variance=0.05, $repetition=0"
attr measurement "$name=tree_4_3, $un=06, $rep=2, $cd=wfc0.01, $cr=lru, $fsize=1, $a=0.9, $sl=nrr, $ttl=1000, $variance=0.05"
attr name tree_4_3
attr network networks.${name}_u${un}_r${rep}_network
attr processid 7280
attr rep 2
attr repetition 0
attr replication #0
attr resultdir results
attr runnumber 121
attr seedset 2
attr sl nrr
attr ttl 1000
attr un 06
attr variance 0.05

scalar . 	a 	0.9
scalar . 	fsize 	1
scalar . 	rep 	2
scalar . 	ttl 	1000
scalar . 	un 	06
scalar . 	variance 	0.05
scalar tree_4_3_u06_r2_network.content_distribution 	repo-0 	0
scalar tree_4_3_u06_r2_network.content_distribution 	client-0 	13
scalar tree_4_3_u06_r2_network.content_distribution 	client-1 	14
scalar tree_4_3_u06_r2_network.content_distribution 	client-2 	15
scalar tree_4_3_u06_r2_network.content_distribution 	client-3 	16
scalar tree_4_3_u06_r2_network.content_distribution 	client-4 	17
scalar tree_4_3_u06_r2_network.content_distribution 	client-5 	18
scalar tree_4_3_u06_r2_network.content_distribution 	client-6 	19
scalar tree_4_3_u06_r2_network.content_distribution 	client-7 	20
scalar tree_4_3_u06_r2_network.content_distribution 	client-8 	21
scalar tree_4_3_u06_r2_network.content_distribution 	client-9 	22
scalar tree_4_3_u06_r2_network.content_distribution 	client-10 	23
scalar tree_4_3_u06_r2_network.content_distribution 	client-11 	24
scalar tree_4_3_u06_r2_network.content_distribution 	client-12 	25
scalar tree_4_3_u06_r2_network.content_distribution 	client-13 	26
scalar tree_4_3_u06_r2_network.content_distribution 	client-14 	27
scalar tree_4_3_u06_r2_network.content_distribution 	client-15 	28
scalar tree_4_3_u06_r2_network.content_distribution 	client-16 	29
scalar tree_4_3_u06_r2_network.content_distribution 	client-17 	30
scalar tree_4_3_u06_r2_network.content_distribution 	client-18 	31
scalar tree_4_3_u06_r2_network.content_distribution 	client-19 	32
scalar tree_4_3_u06_r2_network.content_distribution 	client-20 	33
scalar tree_4_3_u06_r2_network.content_distribution 	client-21 	34
scalar tree_4_3_u06_r2_network.content_distribution 	client-22 	35
scalar tree_4_3_u06_r2_network.content_distribution 	client-23 	36
scalar tree_4_3_u06_r2_network.content_distribution 	client-24 	37
scalar tree_4_3_u06_r2_network.content_distribution 	client-25 	38
scalar tree_4_3_u06_r2_network.content_distribution 	client-26 	39
scalar tree_4_3_u06_r2_network.content_distribution 	repo-0_card 	100000
scalar tree_4_3_u06_r2_network.content_distribution 	repo-0_price 	0
scalar tree_4_3_u06_r2_network.statistics 	stabilization_time 	1044.3
scalar tree_4_3_u06_r2_network.statistics 	p_hit 	0.23060084245908
scalar tree_4_3_u06_r2_network.statistics 	interests 	25080.1
scalar tree_4_3_u06_r2_network.statistics 	data 	16988.65
scalar tree_4_3_u06_r2_network.statistics 	hdistance 	2.6754782104844
scalar tree_4_3_u06_r2_network.statistics 	avg_time 	0.004199047614
scalar tree_4_3_u06_r2_network.statistics 	downloads 	323659
scalar tree_4_3_u06_r2_network.statistics 	total_cost 	0
scalar tree_4_3_u06_r2_network.statistics 	total_replicas 	100000
scalar tree_4_3_u06_r2_network.statistics 	inner_hit 	0.42406050812738
scalar tree_4_3_u06_r2_network.node[0].core_layer 	interests[0] 	188558
scalar tree_4_3_u06_r2_network.node[0].core_layer 	repo_load[0] 	186408
scalar tree_4_3_u06_r2_network.node[0].core_layer 	data[0] 	0
scalar tree_4_3_u06_r2_network.node[0].core_layer 	repo_int[0] 	186408
scalar tree_4_3_u06_r2_network.node[0].content_store 	p_hit[0] 	0.011402327135417
scalar tree_4_3_u06_r2_network.node[0].content_store 	hits[0] 	2150
scalar tree_4_3_u06_r2_network.node[0].content_store 	misses[0] 	186408
scalar tree_4_3_u06_r2_network.node[0].content_store 	decision_yes[0] 	2748
scalar tree_4_3_u06_r2_network.node[0].content_store 	decision_no[0] 	183660
scalar tree_4_3_u06_r2_network.node[0].content_store 	decision_ratio[0] 	0.014741856572679
scalar tree_4_3_u06_r2_network.node[1].core_layer 	interests[1] 	66465
scalar tree_4_3_u06_r2_network.node[1].core_layer 	data[1] 	65376
scalar tree_4_3_u06_r2_network.node[1].content_store 	p_hit[1] 	0.016369517791319
scalar tree_4_3_u06_r2_network.node[1].content_store 	hits[1] 	1088
scalar tree_4_3_u06_r2_network.node[1].content_store 	misses[1] 	65377
scalar tree_4_3_u06_r2_network.node[1].content_store 	decision_yes[1] 	753
scalar tree_4_3_u06_r2_network.node[1].content_store 	decision_no[1] 	64623
scalar tree_4_3_u06_r2_network.node[1].content_store 	decision_ratio[1] 	0.01151798825257
scalar tree_4_3_u06_r2_network.node[2].core_layer 	interests[2] 	99982
scalar tree_4_3_u06_r2_network.node[2].core_layer 	data[2] 	97690
scalar tree_4_3_u06_r2_network.node[2].content_store 	p_hit[2] 	0.022924126342742
scalar tree_4_3_u06_r2_network.node[2].content_store 	hits[2] 	2292
scalar tree_4_3_u06_r2_network.node[2].content_store 	misses[2] 	97690
scalar tree_4_3_u06_r2_network.node[2].content_store 	decision_yes[2] 	1117
scalar tree_4_3_u06_r2_network.node[2].content_store 	decision_no[2] 	96573
scalar tree_4_3_u06_r2_network.node[2].content_store 	decision_ratio[2] 	0.011434128365237
scalar tree_4_3_u06_r2_network.node[3].core_layer 	interests[3] 	46962
scalar tree_4_3_u06_r2_network.node[3].core_layer 	data[3] 	43280
scalar tree_4_3_u06_r2_network.node[3].content_store 	p_hit[3] 	0.078425109663132
scalar tree_4_3_u06_r2_network.node[3].content_store 	hits[3] 	3683
scalar tree_4_3_u06_r2_network.node[3].content_store 	misses[3] 	43279
scalar tree_4_3_u06_r2_network.node[3].content_store 	decision_yes[3] 	722
scalar tree_4_3_u06_r2_network.node[3].content_store 	decision_no[3] 	42558
scalar tree_4_3_u06_r2_network.node[3].content_store 	decision_ratio[3] 	0.016682070240296
scalar tree_4_3_u06_r2_network.node[4].core_layer 	interests[4] 	42480
scalar tree_4_3_u06_r2_network.node[4].core_layer 	data[4] 	40436
scalar tree_4_3_u06_r2_network.node[4].content_store 	p_hit[4] 	0.048116760828625
scalar tree_4_3_u06_r2_network.node[4].content_store 	hits[4] 	2044
scalar tree_4_3_u06_r2_network.node[4].content_store 	misses[4] 	40436
scalar tree_4_3_u06_r2_network.node[4].content_store 	decision_yes[4] 	551
scalar tree_4_3_u06_r2_network.node[4].content_store 	decision_no[4] 	39885
scalar tree_4_3_u06_r2_network.node[4].content_store 	decision_ratio[4] 	0.013626471461074
scalar tree_4_3_u06_r2_network.node[5].core_layer 	interests[5] 	20611
scalar tree_4_3_u06_r2_network.node[5].core_layer 	data[5] 	17538
scalar tree_4_3_u06_r2_network.node[5].content_store 	p_hit[5] 	0.14909514337005
scalar tree_4_3_u06_r2_network.node[5].content_store 	hits[5] 	3073
scalar tree_4_3_u06_r2_network.node[5].content_store 	misses[5] 	17538
scalar tree_4_3_u06_r2_network.node[5].content_store 	decision_yes[5] 	294
scalar tree_4_3_u06_r2_network.node[5].content_store 	decision_no[5] 	17244
scalar tree_4_3_u06_r2_network.node[5].content_store 	decision_ratio[5] 	0.01676359904208
scalar tree_4_3_u06_r2_network.node[6].core_layer 	interests[6] 	22486
scalar tree_4_3_u06_r2_network.node[6].core_layer 	data[6] 	19203
scalar tree_4_3_u06_r2_network.node[6].content_store 	p_hit[6] 	0.1460019567731
scalar tree_4_3_u06_r2_network.node[6].content_store 	hits[6] 	3283
scalar tree_4_3_u06_r2_network.node[6].content_store 	misses[6] 	19203
scalar tree_4_3_u06_r2_network.node[6].content_store 	decision_yes[6] 	406
scalar tree_4_3_u06_r2_network.node[6].content_store 	decision_no[6] 	18797
scalar tree_4_3_u06_r2_network.node[6].content_store 	decision_ratio[6] 	0.02114252981305
scalar tree_4_3_u06_r2_network.node[7].core_layer 	interests[7] 	43107
scalar tree_4_3_u06_r2_network.node[7].core_layer 	data[7] 	40550
scalar tree_4_3_u06_r2_network.node[7].content_store 	p_hit[7] 	0.059340710325469
scalar tree_4_3_u06_r2_network.node[7].content_store 	hits[7] 	2558
scalar tree_4_3_u06_r2_network.node[7].content_store 	misses[7] 	40549
scalar tree_4_3_u06_r2_network.node[7].content_store 	decision_yes[7] 	507
scalar tree_4_3_u06_r2_network.node[7].content_store 	decision_no[7] 	40043
scalar tree_4_3_u06_r2_network.node[7].content_store 	decision_ratio[7] 	0.012503082614057
scalar tree_4_3_u06_r2_network.node[8].core_layer 	interests[8] 	28333
scalar tree_4_3_u06_r2_network.node[8].core_layer 	data[8] 	25449
scalar tree_4_3_u06_r2_network.node[8].content_store 	p_hit[8] 	0.10178943281686
scalar tree_4_3_u06_r2_network.node[8].content_store 	hits[8] 	2884
scalar tree_4_3_u06_r2_network.node[8].content_store 	misses[8] 	25449
scalar tree_4_3_u06_r2_network.node[8].content_store 	decision_yes[8] 	412
scalar tree_4_3_u06_r2_network.node[8].content_store 	decision_no[8] 	25037
scalar tree_4_3_u06_r2_network.node[8].content_store 	decision_ratio[8] 	0.016189241227553
scalar tree_4_3_u06_r2_network.node[9].core_layer 	interests[9] 	15063
scalar tree_4_3_u06_r2_network.node[9].core_layer 	data[9] 	11062
scalar tree_4_3_u06_r2_network.node[9].content_store 	p_hit[9] 	0.2655513509925
scalar tree_4_3_u06_r2_network.node[9].content_store 	hits[9] 	4000
scalar tree_4_3_u06_r2_network.node[9].content_store 	misses[9] 	11063
scalar tree_4_3_u06_r2_network.node[9].content_store 	decision_yes[9] 	341
scalar tree_4_3_u06_r2_network.node[9].content_store 	decision_no[9] 	10721
scalar tree_4_3_u06_r2_network.node[9].content_store 	decision_ratio[9] 	0.03082625203399
scalar tree_4_3_u06_r2_network.node[10].core_layer 	interests[10] 	28168
scalar tree_4_3_u06_r2_network.node[10].core_layer 	data[10] 	25790
scalar tree_4_3_u06_r2_network.node[10].content_store 	p_hit[10] 	0.084493041749503
scalar tree_4_3_u06_r2_network.node[10].content_store 	hits[10] 	2380
scalar tree_4_3_u06_r2_network.node[10].content_store 	misses[10] 	25788
scalar tree_4_3_u06_r2_network.node[10].content_store 	decision_yes[10] 	411
scalar tree_4_3_u06_r2_network.node[10].content_store 	decision_no[10] 	25379
scalar tree_4_3_u06_r2_network.node[10].content_store 	decision_ratio[10] 	0.015936409461031
scalar tree_4_3_u06_r2_network.node[11].core_layer 	interests[11] 	37583
scalar tree_4_3_u06_r2_network.node[11].core_layer 	data[11] 	34363
scalar tree_4_3_u06_r2_network.node[11].content_store 	p_hit[11] 	0.085677034829577
scalar tree_4_3_u06_r2_network.node[11].content_store 	hits[11] 	3220
scalar tree_4_3_u06_r2_network.node[11].content_store 	misses[11] 	34363
scalar tree_4_3_u06_r2_network.node[11].content_store 	decision_yes[11] 	558
scalar tree_4_3_u06_r2_network.node[11].content_store 	decision_no[11] 	33805
scalar tree_4_3_u06_r2_network.node[11].content_store 	decision_ratio[11] 	0.016238395949131
scalar tree_4_3_u06_r2_network.node[12].core_layer 	interests[12] 	20668
scalar tree_4_3_u06_r2_network.node[12].core_layer 	data[12] 	18095
scalar tree_4_3_u06_r2_network.node[12].content_store 	p_hit[12] 	0.12444358428488
scalar tree_4_3_u06_r2_network.node[12].content_store 	hits[12] 	2572
scalar tree_4_3_u06_r2_network.node[12].content_store 	misses[12] 	18096
scalar tree_4_3_u06_r2_network.node[12].content_store 	decision_yes[12] 	310
scalar tree_4_3_u06_r2_network.node[12].content_store 	decision_no[12] 	17785
scalar tree_4_3_u06_r2_network.node[12].content_store 	decision_ratio[12] 	0.017131804365847
scalar tree_4_3_u06_r2_network.node[13].core_layer 	interests[13] 	12507
scalar tree_4_3_u06_r2_network.node[13].core_layer 	data[13] 	8890
scalar tree_4_3_u06_r2_network.node[13].content_store 	p_hit[13] 	0.28919804909251
scalar tree_4_3_u06_r2_network.node[13].content_store 	hits[13] 	3617
scalar tree_4_3_u06_r2_network.node[13].content_store 	misses[13] 	8890
scalar tree_4_3_u06_r2_network.node[13].content_store 	decision_yes[13] 	124
scalar tree_4_3_u06_r2_network.node[13].content_store 	decision_no[13] 	8766
scalar tree_4_3_u06_r2_network.node[13].content_store 	decision_ratio[13] 	0.013948256467942
scalar tree_4_3_u06_r2_network.node[14].core_layer 	interests[14] 	12341
scalar tree_4_3_u06_r2_network.node[14].core_layer 	data[14] 	8802
scalar tree_4_3_u06_r2_network.node[14].content_store 	p_hit[14] 	0.2867676849526
scalar tree_4_3_u06_r2_network.node[14].content_store 	hits[14] 	3539
scalar tree_4_3_u06_r2_network.node[14].content_store 	misses[14] 	8802
scalar tree_4_3_u06_r2_network.node[14].content_store 	decision_yes[14] 	113
scalar tree_4_3_u06_r2_network.node[14].content_store 	decision_no[14] 	8689
scalar tree_4_3_u06_r2_network.node[14].content_store 	decision_ratio[14] 	0.012837991365599
scalar tree_4_3_u06_r2_network.node[15].core_layer 	interests[15] 	12412
scalar tree_4_3_u06_r2_network.node[15].core_layer 	data[15] 	8772
scalar tree_4_3_u06_r2_network.node[15].content_store 	p_hit[15] 	0.29326458266194
scalar tree_4_3_u06_r2_network.node[15].content_store 	hits[15] 	3640
scalar tree_4_3_u06_r2_network.node[15].content_store 	misses[15] 	8772
scalar tree_4_3_u06_r2_network.node[15].content_store 	decision_yes[15] 	116
scalar tree_4_3_u06_r2_network.node[15].content_store 	decision_no[15] 	8656
scalar tree_4_3_u06_r2_network.node[15].content_store 	decision_ratio[15] 	0.013223894208846
scalar tree_4_3_u06_r2_network.node[16].core_layer 	interests[16] 	12897
scalar tree_4_3_u06_r2_network.node[16].core_layer 	data[16] 	8979
scalar tree_4_3_u06_r2_network.node[16].content_store 	p_hit[16] 	0.30371404202528
scalar tree_4_3_u06_r2_network.node[16].content_store 	hits[16] 	3917
scalar tree_4_3_u06_r2_network.node[16].content_store 	misses[16] 	8980
scalar tree_4_3_u06_r2_network.node[16].content_store 	decision_yes[16] 	139
scalar tree_4_3_u06_r2_network.node[16].content_store 	decision_no[16] 	8840
scalar tree_4_3_u06_r2_network.node[16].content_store 	decision_ratio[16] 	0.015480565764562
scalar tree_4_3_u06_r2_network.node[17].core_layer 	interests[17] 	12269
scalar tree_4_3_u06_r2_network.node[17].core_layer 	data[17] 	8751
scalar tree_4_3_u06_r2_network.node[17].content_store 	p_hit[17] 	0.28673893552857
scalar tree_4_3_u06_r2_network.node[17].content_store 	hits[17] 	3518
scalar tree_4_3_u06_r2_network.node[17].content_store 	misses[17] 	8751
scalar tree_4_3_u06_r2_network.node[17].content_store 	decision_yes[17] 	96
scalar tree_4_3_u06_r2_network.node[17].content_store 	decision_no[17] 	8655
scalar tree_4_3_u06_r2_network.node[17].content_store 	decision_ratio[17] 	0.010970174837161
scalar tree_4_3_u06_r2_network.node[18].core_layer 	interests[18] 	13019
scalar tree_4_3_u06_r2_network.node[18].core_layer 	data[18] 	8960
scalar tree_4_3_u06_r2_network.node[18].content_store 	p_hit[18] 	0.31177509793379
scalar tree_4_3_u06_r2_network.node[18].content_store 	hits[18] 	4059
scalar tree_4_3_u06_r2_network.node[18].content_store 	misses[18] 	8960
scalar tree_4_3_u06_r2_network.node[18].content_store 	decision_yes[18] 	127
scalar tree_4_3_u06_r2_network.node[18].content_store 	decision_no[18] 	8833
scalar tree_4_3_u06_r2_network.node[18].content_store 	decision_ratio[18] 	0.014174107142857
scalar tree_4_3_u06_r2_network.node[19].core_layer 	interests[19] 	13070
scalar tree_4_3_u06_r2_network.node[19].core_layer 	data[19] 	8859
scalar tree_4_3_u06_r2_network.node[19].content_store 	p_hit[19] 	0.32218821729151
scalar tree_4_3_u06_r2_network.node[19].content_store 	hits[19] 	4211
scalar tree_4_3_u06_r2_network.node[19].content_store 	misses[19] 	8859
scalar tree_4_3_u06_r2_network.node[19].content_store 	decision_yes[19] 	142
scalar tree_4_3_u06_r2_network.node[19].content_store 	decision_no[19] 	8717
scalar tree_4_3_u06_r2_network.node[19].content_store 	decision_ratio[19] 	0.016028897166723
scalar tree_4_3_u06_r2_network.node[20].core_layer 	interests[20] 	12441
scalar tree_4_3_u06_r2_network.node[20].core_layer 	data[20] 	8893
scalar tree_4_3_u06_r2_network.node[20].content_store 	p_hit[20] 	0.2851056988988
scalar tree_4_3_u06_r2_network.node[20].content_store 	hits[20] 	3547
scalar tree_4_3_u06_r2_network.node[20].content_store 	misses[20] 	8894
scalar tree_4_3_u06_r2_network.node[20].content_store 	decision_yes[20] 	121
scalar tree_4_3_u06_r2_network.node[20].content_store 	decision_no[20] 	8772
scalar tree_4_3_u06_r2_network.node[20].content_store 	decision_ratio[20] 	0.013606207129203
scalar tree_4_3_u06_r2_network.node[21].core_layer 	interests[21] 	12376
scalar tree_4_3_u06_r2_network.node[21].core_layer 	data[21] 	8761
scalar tree_4_3_u06_r2_network.node[21].content_store 	p_hit[21] 	0.29209760827408
scalar tree_4_3_u06_r2_network.node[21].content_store 	hits[21] 	3615
scalar tree_4_3_u06_r2_network.node[21].content_store 	misses[21] 	8761
scalar tree_4_3_u06_r2_network.node[21].content_store 	decision_yes[21] 	121
scalar tree_4_3_u06_r2_network.node[21].content_store 	decision_no[21] 	8640
scalar tree_4_3_u06_r2_network.node[21].content_store 	decision_ratio[21] 	0.013811208766123
scalar tree_4_3_u06_r2_network.node[22].core_layer 	interests[22] 	12528
scalar tree_4_3_u06_r2_network.node[22].core_layer 	data[22] 	8944
scalar tree_4_3_u06_r2_network.node[22].content_store 	p_hit[22] 	0.28607918263091
scalar tree_4_3_u06_r2_network.node[22].content_store 	hits[22] 	3584
scalar tree_4_3_u06_r2_network.node[22].content_store 	misses[22] 	8944
scalar tree_4_3_u06_r2_network.node[22].content_store 	decision_yes[22] 	121
scalar tree_4_3_u06_r2_network.node[22].content_store 	decision_no[22] 	8823
scalar tree_4_3_u06_r2_network.node[22].content_store 	decision_ratio[22] 	0.01352862254025
scalar tree_4_3_u06_r2_network.node[23].core_layer 	interests[23] 	12820
scalar tree_4_3_u06_r2_network.node[23].core_layer 	data[23] 	8779
scalar tree_4_3_u06_r2_network.node[23].content_store 	p_hit[23] 	0.31521060842434
scalar tree_4_3_u06_r2_network.node[23].content_store 	hits[23] 	4041
scalar tree_4_3_u06_r2_network.node[23].content_store 	misses[23] 	8779
scalar tree_4_3_u06_r2_network.node[23].content_store 	decision_yes[23] 	130
scalar tree_4_3_u06_r2_network.node[23].content_store 	decision_no[23] 	8649
scalar tree_4_3_u06_r2_network.node[23].content_store 	decision_ratio[23] 	0.014808064699852
scalar tree_4_3_u06_r2_network.node[24].core_layer 	interests[24] 	12938
scalar tree_4_3_u06_r2_network.node[24].core_layer 	data[24] 	9033
scalar tree_4_3_u06_r2_network.node[24].content_store 	p_hit[24] 	0.30190137579224
scalar tree_4_3_u06_r2_network.node[24].content_store 	hits[24] 	3906
scalar tree_4_3_u06_r2_network.node[24].content_store 	misses[24] 	9032
scalar tree_4_3_u06_r2_network.node[24].content_store 	decision_yes[24] 	139
scalar tree_4_3_u06_r2_network.node[24].content_store 	decision_no[24] 	8894
scalar tree_4_3_u06_r2_network.node[24].content_store 	decision_ratio[24] 	0.015388021698218
scalar tree_4_3_u06_r2_network.node[25].core_layer 	interests[25] 	13200
scalar tree_4_3_u06_r2_network.node[25].core_layer 	data[25] 	9061
scalar tree_4_3_u06_r2_network.node[25].content_store 	p_hit[25] 	0.31356060606061
scalar tree_4_3_u06_r2_network.node[25].content_store 	hits[25] 	4139
scalar tree_4_3_u06_r2_network.node[25].content_store 	misses[25] 	9061
scalar tree_4_3_u06_r2_network.node[25].content_store 	decision_yes[25] 	138
scalar tree_4_3_u06_r2_network.node[25].content_store 	decision_no[25] 	8923
scalar tree_4_3_u06_r2_network.node[25].content_store 	decision_ratio[25] 	0.015230107052202
scalar tree_4_3_u06_r2_network.node[26].core_layer 	interests[26] 	12461
scalar tree_4_3_u06_r2_network.node[26].core_layer 	data[26] 	8805
scalar tree_4_3_u06_r2_network.node[26].content_store 	p_hit[26] 	0.29339539362812
scalar tree_4_3_u06_r2_network.node[26].content_store 	hits[26] 	3656
scalar tree_4_3_u06_r2_network.node[26].content_store 	misses[26] 	8805
scalar tree_4_3_u06_r2_network.node[26].content_store 	decision_yes[26] 	106
scalar tree_4_3_u06_r2_network.node[26].content_store 	decision_no[26] 	8699
scalar tree_4_3_u06_r2_network.node[26].content_store 	decision_ratio[26] 	0.012038614423623
scalar tree_4_3_u06_r2_network.node[27].core_layer 	interests[27] 	12570
scalar tree_4_3_u06_r2_network.node[27].core_layer 	data[27] 	9001
scalar tree_4_3_u06_r2_network.node[27].content_store 	p_hit[27] 	0.28400954653938
scalar tree_4_3_u06_r2_network.node[27].content_store 	hits[27] 	3570
scalar tree_4_3_u06_r2_network.node[27].content_store 	misses[27] 	9000
scalar tree_4_3_u06_r2_network.node[27].content_store 	decision_yes[27] 	142
scalar tree_4_3_u06_r2_network.node[27].content_store 	decision_no[27] 	8859
scalar tree_4_3_u06_r2_network.node[27].content_store 	decision_ratio[27] 	0.015776024886124
scalar tree_4_3_u06_r2_network.node[28].core_layer 	interests[28] 	12954
scalar tree_4_3_u06_r2_network.node[28].core_layer 	data[28] 	9028
scalar tree_4_3_u06_r2_network.node[28].content_store 	p_hit[28] 	0.30307241006639
scalar tree_4_3_u06_r2_network.node[28].content_store 	hits[28] 	3926
scalar tree_4_3_u06_r2_network.node[28].content_store 	misses[28] 	9028
scalar tree_4_3_u06_r2_network.node[28].content_store 	decision_yes[28] 	154
scalar tree_4_3_u06_r2_network.node[28].content_store 	decision_no[28] 	8874
scalar tree_4_3_u06_r2_network.node[28].content_store 	decision_ratio[28] 	0.017058041648206
scalar tree_4_3_u06_r2_network.node[29].core_layer 	interests[29] 	13089
scalar tree_4_3_u06_r2_network.node[29].core_layer 	data[29] 	8896
scalar tree_4_3_u06_r2_network.node[29].content_store 	p_hit[29] 	0.32026892810757
scalar tree_4_3_u06_r2_network.node[29].content_store 	hits[29] 	4192
scalar tree_4_3_u06_r2_network.node[29].content_store 	misses[29] 	8897
scalar tree_4_3_u06_r2_network.node[29].content_store 	decision_yes[29] 	144
scalar tree_4_3_u06_r2_network.node[29].content_store 	decision_no[29] 	8752
scalar tree_4_3_u06_r2_network.node[29].content_store 	decision_ratio[29] 	0.016187050359712
scalar tree_4_3_u06_r2_network.node[30].core_layer 	interests[30] 	12429
scalar tree_4_3_u06_r2_network.node[30].core_layer 	data[30] 	8836
scalar tree_4_3_u06_r2_network.node[30].content_store 	p_hit[30] 	0.28908198567865
scalar tree_4_3_u06_r2_network.node[30].content_store 	hits[30] 	3593
scalar tree_4_3_u06_r2_network.node[30].content_store 	misses[30] 	8836
scalar tree_4_3_u06_r2_network.node[30].content_store 	decision_yes[30] 	108
scalar tree_4_3_u06_r2_network.node[30].content_store 	decision_no[30] 	8728
scalar tree_4_3_u06_r2_network.node[30].content_store 	decision_ratio[30] 	0.012222725215029
scalar tree_4_3_u06_r2_network.node[31].core_layer 	interests[31] 	12409
scalar tree_4_3_u06_r2_network.node[31].core_layer 	data[31] 	8915
scalar tree_4_3_u06_r2_network.node[31].content_store 	p_hit[31] 	0.28156982835039
scalar tree_4_3_u06_r2_network.node[31].content_store 	hits[31] 	3494
scalar tree_4_3_u06_r2_network.node[31].content_store 	misses[31] 	8915
scalar tree_4_3_u06_r2_network.node[31].content_store 	decision_yes[31] 	110
scalar tree_4_3_u06_r2_network.node[31].content_store 	decision_no[31] 	8805
scalar tree_4_3_u06_r2_network.node[31].content_store 	decision_ratio[31] 	0.012338754907459
scalar tree_4_3_u06_r2_network.node[32].core_layer 	interests[32] 	13259
scalar tree_4_3_u06_r2_network.node[32].core_layer 	data[32] 	8969
scalar tree_4_3_u06_r2_network.node[32].content_store 	p_hit[32] 	0.3234783920356
scalar tree_4_3_u06_r2_network.node[32].content_store 	hits[32] 	4289
scalar tree_4_3_u06_r2_network.node[32].content_store 	misses[32] 	8970
scalar tree_4_3_u06_r2_network.node[32].content_store 	decision_yes[32] 	122
scalar tree_4_3_u06_r2_network.node[32].content_store 	decision_no[32] 	8847
scalar tree_4_3_u06_r2_network.node[32].content_store 	decision_ratio[32] 	0.013602408295239
scalar tree_4_3_u06_r2_network.node[33].core_layer 	interests[33] 	12648
scalar tree_4_3_u06_r2_network.node[33].core_layer 	data[33] 	8818
scalar tree_4_3_u06_r2_network.node[33].content_store 	p_hit[33] 	0.30289373814042
scalar tree_4_3_u06_r2_network.node[33].content_store 	hits[33] 	3831
scalar tree_4_3_u06_r2_network.node[33].content_store 	misses[33] 	8817
scalar tree_4_3_u06_r2_network.node[33].content_store 	decision_yes[33] 	131
scalar tree_4_3_u06_r2_network.node[33].content_store 	decision_no[33] 	8687
scalar tree_4_3_u06_r2_network.node[33].content_store 	decision_ratio[33] 	0.014855976411885
scalar tree_4_3_u06_r2_network.node[34].core_layer 	interests[34] 	12737
scalar tree_4_3_u06_r2_network.node[34].core_layer 	data[34] 	8970
scalar tree_4_3_u06_r2_network.node[34].content_store 	p_hit[34] 	0.29567402056999
scalar tree_4_3_u06_r2_network.node[34].content_store 	hits[34] 	3766
scalar tree_4_3_u06_r2_network.node[34].content_store 	misses[34] 	8971
scalar tree_4_3_u06_r2_network.node[34].content_store 	decision_yes[34] 	125
scalar tree_4_3_u06_r2_network.node[34].content_store 	decision_no[34] 	8845
scalar tree_4_3_u06_r2_network.node[34].content_store 	decision_ratio[34] 	0.013935340022297
scalar tree_4_3_u06_r2_network.node[35].core_layer 	interests[35] 	12608
scalar tree_4_3_u06_r2_network.node[35].core_layer 	data[35] 	8834
scalar tree_4_3_u06_r2_network.node[35].content_store 	p_hit[35] 	0.29925444162437
scalar tree_4_3_u06_r2_network.node[35].content_store 	hits[35] 	3773
scalar tree_4_3_u06_r2_network.node[35].content_store 	misses[35] 	8835
scalar tree_4_3_u06_r2_network.node[35].content_store 	decision_yes[35] 	102
scalar tree_4_3_u06_r2_network.node[35].content_store 	decision_no[35] 	8732
scalar tree_4_3_u06_r2_network.node[35].content_store 	decision_ratio[35] 	0.011546298392574
scalar tree_4_3_u06_r2_network.node[36].core_layer 	interests[36] 	12739
scalar tree_4_3_u06_r2_network.node[36].core_layer 	data[36] 	8942
scalar tree_4_3_u06_r2_network.node[36].content_store 	p_hit[36] 	0.29806107229767
scalar tree_4_3_u06_r2_network.node[36].content_store 	hits[36] 	3797
scalar tree_4_3_u06_r2_network.node[36].content_store 	misses[36] 	8942
scalar tree_4_3_u06_r2_network.node[36].content_store 	decision_yes[36] 	124
scalar tree_4_3_u06_r2_network.node[36].content_store 	decision_no[36] 	8818
scalar tree_4_3_u06_r2_network.node[36].content_store 	decision_ratio[36] 	0.013867143815701
scalar tree_4_3_u06_r2_network.node[37].core_layer 	interests[37] 	12792
scalar tree_4_3_u06_r2_network.node[37].core_layer 	data[37] 	8869
scalar tree_4_3_u06_r2_network.node[37].content_store 	p_hit[37] 	0.30675422138837
scalar tree_4_3_u06_r2_network.node[37].content_store 	hits[37] 	3924
scalar tree_4_3_u06_r2_network.node[37].content_store 	misses[37] 	8868
scalar tree_4_3_u06_r2_network.node[37].content_store 	decision_yes[37] 	117
scalar tree_4_3_u06_r2_network.node[37].content_store 	decision_no[37] 	8752
scalar tree_4_3_u06_r2_network.node[37].content_store 	decision_ratio[37] 	0.013192017138347
scalar tree_4_3_u06_r2_network.node[38].core_layer 	interests[38] 	12683
scalar tree_4_3_u06_r2_network.node[38].core_layer 	data[38] 	9265
scalar tree_4_3_u06_r2_network.node[38].content_store 	p_hit[38] 	0.26949459906962
scalar tree_4_3_u06_r2_network.node[38].content_store 	hits[38] 	3418
scalar tree_4_3_u06_r2_network.node[38].content_store 	misses[38] 	9265
scalar tree_4_3_u06_r2_network.node[38].content_store 	decision_yes[38] 	150
scalar tree_4_3_u06_r2_network.node[38].content_store 	decision_no[38] 	9115
scalar tree_4_3_u06_r2_network.node[38].content_store 	decision_ratio[38] 	0.016189962223421
scalar tree_4_3_u06_r2_network.node[39].core_layer 	interests[39] 	12542
scalar tree_4_3_u06_r2_network.node[39].core_layer 	data[39] 	9082
scalar tree_4_3_u06_r2_network.node[39].content_store 	p_hit[39] 	0.27579333439643
scalar tree_4_3_u06_r2_network.node[39].content_store 	hits[39] 	3459
scalar tree_4_3_u06_r2_network.node[39].content_store 	misses[39] 	9083
scalar tree_4_3_u06_r2_network.node[39].content_store 	decision_yes[39] 	132
scalar tree_4_3_u06_r2_network.node[39].content_store 	decision_no[39] 	8950
scalar tree_4_3_u06_r2_network.node[39].content_store 	decision_ratio[39] 	0.014534243558688
scalar tree_4_3_u06_r2_network.client[13] 	hdistance[13] 	2.7203481143804
scalar tree_4_3_u06_r2_network.client[13] 	downloads[13] 	12065
scalar tree_4_3_u06_r2_network.client[13] 	avg_time[13] 	0.00421300984
scalar tree_4_3_u06_r2_network.client[14] 	hdistance[14] 	2.7269143671895
scalar tree_4_3_u06_r2_network.client[14] 	downloads[14] 	11923
scalar tree_4_3_u06_r2_network.client[14] 	avg_time[14] 	0.004223095247
scalar tree_4_3_u06_r2_network.client[15] 	hdistance[15] 	2.7192466156563
scalar tree_4_3_u06_r2_network.client[15] 	downloads[15] 	11893
scalar tree_4_3_u06_r2_network.client[15] 	avg_time[15] 	0.004212390837
scalar tree_4_3_u06_r2_network.client[16] 	hdistance[16] 	2.6521994134897
scalar tree_4_3_u06_r2_network.client[16] 	downloads[16] 	11935
scalar tree_4_3_u06_r2_network.client[16] 	avg_time[16] 	0.004175235096
scalar tree_4_3_u06_r2_network.client[17] 	hdistance[17] 	2.689756754482
scalar tree_4_3_u06_r2_network.client[17] 	downloads[17] 	11881
scalar tree_4_3_u06_r2_network.client[17] 	avg_time[17] 	0.004251322673
scalar tree_4_3_u06_r2_network.client[18] 	hdistance[18] 	2.6562027866376
scalar tree_4_3_u06_r2_network.client[18] 	downloads[18] 	11914
scalar tree_4_3_u06_r2_network.client[18] 	avg_time[18] 	0.004191140828
scalar tree_4_3_u06_r2_network.client[19] 	hdistance[19] 	2.6421762969211
scalar tree_4_3_u06_r2_network.client[19] 	downloads[19] 	11855
scalar tree_4_3_u06_r2_network.client[19] 	avg_time[19] 	0.00415014467
scalar tree_4_3_u06_r2_network.client[20] 	hdistance[20] 	2.6861497236644
scalar tree_4_3_u06_r2_network.client[20] 	downloads[20] 	11942
scalar tree_4_3_u06_r2_network.client[20] 	avg_time[20] 	0.004241436281
scalar tree_4_3_u06_r2_network.client[21] 	hdistance[21] 	2.6756345177665
scalar tree_4_3_u06_r2_network.client[21] 	downloads[21] 	11820
scalar tree_4_3_u06_r2_network.client[21] 	avg_time[21] 	0.004222839698
scalar tree_4_3_u06_r2_network.client[22] 	hdistance[22] 	2.7146548849616
scalar tree_4_3_u06_r2_network.client[22] 	downloads[22] 	11996
scalar tree_4_3_u06_r2_network.client[22] 	avg_time[22] 	0.004252581221
scalar tree_4_3_u06_r2_network.client[23] 	hdistance[23] 	2.668278201866
scalar tree_4_3_u06_r2_network.client[23] 	downloads[23] 	11790
scalar tree_4_3_u06_r2_network.client[23] 	avg_time[23] 	0.004161150543
scalar tree_4_3_u06_r2_network.client[24] 	hdistance[24] 	2.6389189189189
scalar tree_4_3_u06_r2_network.client[24] 	downloads[24] 	12025
scalar tree_4_3_u06_r2_network.client[24] 	avg_time[24] 	0.004155839007
scalar tree_4_3_u06_r2_network.client[25] 	hdistance[25] 	2.6260149265972
scalar tree_4_3_u06_r2_network.client[25] 	downloads[25] 	12193
scalar tree_4_3_u06_r2_network.client[25] 	avg_time[25] 	0.004101858689
scalar tree_4_3_u06_r2_network.client[26] 	hdistance[26] 	2.6736983090574
scalar tree_4_3_u06_r2_network.client[26] 	downloads[26] 	11946
scalar tree_4_3_u06_r2_network.client[26] 	avg_time[26] 	0.004192195255
scalar tree_4_3_u06_r2_network.client[27] 	hdistance[27] 	2.7085097550851
scalar tree_4_3_u06_r2_network.client[27] 	downloads[27] 	12045
scalar tree_4_3_u06_r2_network.client[27] 	avg_time[27] 	0.004246904421
scalar tree_4_3_u06_r2_network.client[28] 	hdistance[28] 	2.6359481469171
scalar tree_4_3_u06_r2_network.client[28] 	downloads[28] 	12034
scalar tree_4_3_u06_r2_network.client[28] 	avg_time[28] 	0.004144254957
scalar tree_4_3_u06_r2_network.client[29] 	hdistance[29] 	2.6067669172932
scalar tree_4_3_u06_r2_network.client[29] 	downloads[29] 	11970
scalar tree_4_3_u06_r2_network.client[29] 	avg_time[29] 	0.004100414727
scalar tree_4_3_u06_r2_network.client[30] 	hdistance[30] 	2.6613158113615
scalar tree_4_3_u06_r2_network.client[30] 	downloads[30] 	12023
scalar tree_4_3_u06_r2_network.client[30] 	avg_time[30] 	0.004200948548
scalar tree_4_3_u06_r2_network.client[31] 	hdistance[31] 	2.7058188760687
scalar tree_4_3_u06_r2_network.client[31] 	downloads[31] 	12047
scalar tree_4_3_u06_r2_network.client[31] 	avg_time[31] 	0.004245037234
scalar tree_4_3_u06_r2_network.client[32] 	hdistance[32] 	2.6097198115547
scalar tree_4_3_u06_r2_network.client[32] 	downloads[32] 	12099
scalar tree_4_3_u06_r2_network.client[32] 	avg_time[32] 	0.004113949402
scalar tree_4_3_u06_r2_network.client[33] 	hdistance[33] 	2.6633871510259
scalar tree_4_3_u06_r2_network.client[33] 	downloads[33] 	11892
scalar tree_4_3_u06_r2_network.client[33] 	avg_time[33] 	0.004152368378
scalar tree_4_3_u06_r2_network.client[34] 	hdistance[34] 	2.6891204668612
scalar tree_4_3_u06_r2_network.client[34] 	downloads[34] 	11995
scalar tree_4_3_u06_r2_network.client[34] 	avg_time[34] 	0.004259369078
scalar tree_4_3_u06_r2_network.client[35] 	hdistance[35] 	2.6698825503356
scalar tree_4_3_u06_r2_network.client[35] 	downloads[35] 	11920
scalar tree_4_3_u06_r2_network.client[35] 	avg_time[35] 	0.004223597909
scalar tree_4_3_u06_r2_network.client[36] 	hdistance[36] 	2.6650397088021
scalar tree_4_3_u06_r2_network.client[36] 	downloads[36] 	12088
scalar tree_4_3_u06_r2_network.client[36] 	avg_time[36] 	0.004218726324
scalar tree_4_3_u06_r2_network.client[37] 	hdistance[37] 	2.6516694490818
scalar tree_4_3_u06_r2_network.client[37] 	downloads[37] 	11980
scalar tree_4_3_u06_r2_network.client[37] 	avg_time[37] 	0.00413839435
scalar tree_4_3_u06_r2_network.client[38] 	hdistance[38] 	2.7464834539393
scalar tree_4_3_u06_r2_network.client[38] 	downloads[38] 	12299
scalar tree_4_3_u06_r2_network.client[38] 	avg_time[38] 	0.004299045605
scalar tree_4_3_u06_r2_network.client[39] 	hdistance[39] 	2.734055753164
scalar tree_4_3_u06_r2_network.client[39] 	downloads[39] 	12089
scalar tree_4_3_u06_r2_network.client[39] 	avg_time[39] 	0.004287034786
