version 2
run General-165-20160831-23:25:50-8710
attr a 0.9
attr cd ffc
attr configname General
attr cr lru
attr datetime 20160831-23:25:50
attr experiment General
attr fsize 1
attr inifile hw5115/scenario_Y/omnetp.ini
attr iterationvars "$name=tree_4_3, $un=02, $rep=16, $cd=ffc, $cr=lru, $fsize=1, $a=0.9, $sl=nrr, $ttl=1000, $variance=0.05"
attr iterationvars2 "$name=tree_4_3, $un=02, $rep=16, $cd=ffc, $cr=lru, $fsize=1, $a=0.9, $sl=nrr, $ttl=1000, $variance=0.05, $repetition=0"
attr measurement "$name=tree_4_3, $un=02, $rep=16, $cd=ffc, $cr=lru, $fsize=1, $a=0.9, $sl=nrr, $ttl=1000, $variance=0.05"
attr name tree_4_3
attr network networks.${name}_u${un}_r${rep}_network
attr processid 8710
attr rep 16
attr repetition 0
attr replication #0
attr resultdir results
attr runnumber 165
attr seedset 16
attr sl nrr
attr ttl 1000
attr un 02
attr variance 0.05

scalar . 	a 	0.9
scalar . 	fsize 	1
scalar . 	rep 	16
scalar . 	ttl 	1000
scalar . 	un 	02
scalar . 	variance 	0.05
scalar tree_4_3_u02_r16_network.content_distribution 	repo-0 	0
scalar tree_4_3_u02_r16_network.content_distribution 	client-0 	13
scalar tree_4_3_u02_r16_network.content_distribution 	client-1 	14
scalar tree_4_3_u02_r16_network.content_distribution 	client-2 	15
scalar tree_4_3_u02_r16_network.content_distribution 	client-3 	16
scalar tree_4_3_u02_r16_network.content_distribution 	client-4 	17
scalar tree_4_3_u02_r16_network.content_distribution 	client-5 	18
scalar tree_4_3_u02_r16_network.content_distribution 	client-6 	19
scalar tree_4_3_u02_r16_network.content_distribution 	client-7 	20
scalar tree_4_3_u02_r16_network.content_distribution 	client-8 	21
scalar tree_4_3_u02_r16_network.content_distribution 	client-9 	22
scalar tree_4_3_u02_r16_network.content_distribution 	client-10 	23
scalar tree_4_3_u02_r16_network.content_distribution 	client-11 	24
scalar tree_4_3_u02_r16_network.content_distribution 	client-12 	25
scalar tree_4_3_u02_r16_network.content_distribution 	client-13 	26
scalar tree_4_3_u02_r16_network.content_distribution 	client-14 	27
scalar tree_4_3_u02_r16_network.content_distribution 	client-15 	28
scalar tree_4_3_u02_r16_network.content_distribution 	client-16 	29
scalar tree_4_3_u02_r16_network.content_distribution 	client-17 	30
scalar tree_4_3_u02_r16_network.content_distribution 	client-18 	31
scalar tree_4_3_u02_r16_network.content_distribution 	client-19 	32
scalar tree_4_3_u02_r16_network.content_distribution 	client-20 	33
scalar tree_4_3_u02_r16_network.content_distribution 	client-21 	34
scalar tree_4_3_u02_r16_network.content_distribution 	client-22 	35
scalar tree_4_3_u02_r16_network.content_distribution 	client-23 	36
scalar tree_4_3_u02_r16_network.content_distribution 	client-24 	37
scalar tree_4_3_u02_r16_network.content_distribution 	client-25 	38
scalar tree_4_3_u02_r16_network.content_distribution 	client-26 	39
scalar tree_4_3_u02_r16_network.content_distribution 	repo-0_card 	100000
scalar tree_4_3_u02_r16_network.content_distribution 	repo-0_price 	0
scalar tree_4_3_u02_r16_network.statistics 	stabilization_time 	1222.2
scalar tree_4_3_u02_r16_network.statistics 	p_hit 	0.22449509068884
scalar tree_4_3_u02_r16_network.statistics 	interests 	24945.425
scalar tree_4_3_u02_r16_network.statistics 	data 	16840.9
scalar tree_4_3_u02_r16_network.statistics 	hdistance 	2.6711286480289
scalar tree_4_3_u02_r16_network.statistics 	avg_time 	0.004156117453
scalar tree_4_3_u02_r16_network.statistics 	downloads 	324173
scalar tree_4_3_u02_r16_network.statistics 	total_cost 	0
scalar tree_4_3_u02_r16_network.statistics 	total_replicas 	100000
scalar tree_4_3_u02_r16_network.statistics 	inner_hit 	0.40694937579626
scalar tree_4_3_u02_r16_network.node[0].core_layer 	interests[0] 	195412
scalar tree_4_3_u02_r16_network.node[0].core_layer 	repo_load[0] 	192251
scalar tree_4_3_u02_r16_network.node[0].core_layer 	data[0] 	0
scalar tree_4_3_u02_r16_network.node[0].core_layer 	repo_int[0] 	192251
scalar tree_4_3_u02_r16_network.node[0].content_store 	p_hit[0] 	0.016176079258183
scalar tree_4_3_u02_r16_network.node[0].content_store 	hits[0] 	3161
scalar tree_4_3_u02_r16_network.node[0].content_store 	misses[0] 	192251
scalar tree_4_3_u02_r16_network.node[0].content_store 	decision_yes[0] 	896
scalar tree_4_3_u02_r16_network.node[0].content_store 	decision_no[0] 	191355
scalar tree_4_3_u02_r16_network.node[0].content_store 	decision_ratio[0] 	0.0046605739371967
scalar tree_4_3_u02_r16_network.node[1].core_layer 	interests[1] 	70449
scalar tree_4_3_u02_r16_network.node[1].core_layer 	data[1] 	68684
scalar tree_4_3_u02_r16_network.node[1].content_store 	p_hit[1] 	0.025053584862809
scalar tree_4_3_u02_r16_network.node[1].content_store 	hits[1] 	1765
scalar tree_4_3_u02_r16_network.node[1].content_store 	misses[1] 	68684
scalar tree_4_3_u02_r16_network.node[1].content_store 	decision_yes[1] 	444
scalar tree_4_3_u02_r16_network.node[1].content_store 	decision_no[1] 	68240
scalar tree_4_3_u02_r16_network.node[1].content_store 	decision_ratio[1] 	0.0064643876303069
scalar tree_4_3_u02_r16_network.node[2].core_layer 	interests[2] 	70778
scalar tree_4_3_u02_r16_network.node[2].core_layer 	data[2] 	68976
scalar tree_4_3_u02_r16_network.node[2].content_store 	p_hit[2] 	0.02545988866597
scalar tree_4_3_u02_r16_network.node[2].content_store 	hits[2] 	1802
scalar tree_4_3_u02_r16_network.node[2].content_store 	misses[2] 	68976
scalar tree_4_3_u02_r16_network.node[2].content_store 	decision_yes[2] 	417
scalar tree_4_3_u02_r16_network.node[2].content_store 	decision_no[2] 	68559
scalar tree_4_3_u02_r16_network.node[2].content_store 	decision_ratio[2] 	0.0060455810716771
scalar tree_4_3_u02_r16_network.node[3].core_layer 	interests[3] 	72646
scalar tree_4_3_u02_r16_network.node[3].core_layer 	data[3] 	70166
scalar tree_4_3_u02_r16_network.node[3].content_store 	p_hit[3] 	0.034124383999119
scalar tree_4_3_u02_r16_network.node[3].content_store 	hits[3] 	2479
scalar tree_4_3_u02_r16_network.node[3].content_store 	misses[3] 	70167
scalar tree_4_3_u02_r16_network.node[3].content_store 	decision_yes[3] 	498
scalar tree_4_3_u02_r16_network.node[3].content_store 	decision_no[3] 	69668
scalar tree_4_3_u02_r16_network.node[3].content_store 	decision_ratio[3] 	0.0070974546076447
scalar tree_4_3_u02_r16_network.node[4].core_layer 	interests[4] 	27554
scalar tree_4_3_u02_r16_network.node[4].core_layer 	data[4] 	25612
scalar tree_4_3_u02_r16_network.node[4].content_store 	p_hit[4] 	0.070516077520505
scalar tree_4_3_u02_r16_network.node[4].content_store 	hits[4] 	1943
scalar tree_4_3_u02_r16_network.node[4].content_store 	misses[4] 	25611
scalar tree_4_3_u02_r16_network.node[4].content_store 	decision_yes[4] 	294
scalar tree_4_3_u02_r16_network.node[4].content_store 	decision_no[4] 	25318
scalar tree_4_3_u02_r16_network.node[4].content_store 	decision_ratio[4] 	0.011478994221459
scalar tree_4_3_u02_r16_network.node[5].core_layer 	interests[5] 	27369
scalar tree_4_3_u02_r16_network.node[5].core_layer 	data[5] 	25425
scalar tree_4_3_u02_r16_network.node[5].content_store 	p_hit[5] 	0.071029266688589
scalar tree_4_3_u02_r16_network.node[5].content_store 	hits[5] 	1944
scalar tree_4_3_u02_r16_network.node[5].content_store 	misses[5] 	25425
scalar tree_4_3_u02_r16_network.node[5].content_store 	decision_yes[5] 	267
scalar tree_4_3_u02_r16_network.node[5].content_store 	decision_no[5] 	25158
scalar tree_4_3_u02_r16_network.node[5].content_store 	decision_ratio[5] 	0.010501474926254
scalar tree_4_3_u02_r16_network.node[6].core_layer 	interests[6] 	29325
scalar tree_4_3_u02_r16_network.node[6].core_layer 	data[6] 	26081
scalar tree_4_3_u02_r16_network.node[6].content_store 	p_hit[6] 	0.11062233589088
scalar tree_4_3_u02_r16_network.node[6].content_store 	hits[6] 	3244
scalar tree_4_3_u02_r16_network.node[6].content_store 	misses[6] 	26081
scalar tree_4_3_u02_r16_network.node[6].content_store 	decision_yes[6] 	365
scalar tree_4_3_u02_r16_network.node[6].content_store 	decision_no[6] 	25716
scalar tree_4_3_u02_r16_network.node[6].content_store 	decision_ratio[6] 	0.013994862160193
scalar tree_4_3_u02_r16_network.node[7].core_layer 	interests[7] 	35153
scalar tree_4_3_u02_r16_network.node[7].core_layer 	data[7] 	32850
scalar tree_4_3_u02_r16_network.node[7].content_store 	p_hit[7] 	0.065428270702358
scalar tree_4_3_u02_r16_network.node[7].content_store 	hits[7] 	2300
scalar tree_4_3_u02_r16_network.node[7].content_store 	misses[7] 	32853
scalar tree_4_3_u02_r16_network.node[7].content_store 	decision_yes[7] 	257
scalar tree_4_3_u02_r16_network.node[7].content_store 	decision_no[7] 	32593
scalar tree_4_3_u02_r16_network.node[7].content_store 	decision_ratio[7] 	0.0078234398782344
scalar tree_4_3_u02_r16_network.node[8].core_layer 	interests[8] 	27499
scalar tree_4_3_u02_r16_network.node[8].core_layer 	data[8] 	25500
scalar tree_4_3_u02_r16_network.node[8].content_store 	p_hit[8] 	0.072693552492818
scalar tree_4_3_u02_r16_network.node[8].content_store 	hits[8] 	1999
scalar tree_4_3_u02_r16_network.node[8].content_store 	misses[8] 	25500
scalar tree_4_3_u02_r16_network.node[8].content_store 	decision_yes[8] 	293
scalar tree_4_3_u02_r16_network.node[8].content_store 	decision_no[8] 	25207
scalar tree_4_3_u02_r16_network.node[8].content_store 	decision_ratio[8] 	0.011490196078431
scalar tree_4_3_u02_r16_network.node[9].core_layer 	interests[9] 	19776
scalar tree_4_3_u02_r16_network.node[9].core_layer 	data[9] 	17207
scalar tree_4_3_u02_r16_network.node[9].content_store 	p_hit[9] 	0.12990493527508
scalar tree_4_3_u02_r16_network.node[9].content_store 	hits[9] 	2569
scalar tree_4_3_u02_r16_network.node[9].content_store 	misses[9] 	17207
scalar tree_4_3_u02_r16_network.node[9].content_store 	decision_yes[9] 	198
scalar tree_4_3_u02_r16_network.node[9].content_store 	decision_no[9] 	17009
scalar tree_4_3_u02_r16_network.node[9].content_store 	decision_ratio[9] 	0.011506944848027
scalar tree_4_3_u02_r16_network.node[10].core_layer 	interests[10] 	35543
scalar tree_4_3_u02_r16_network.node[10].core_layer 	data[10] 	33102
scalar tree_4_3_u02_r16_network.node[10].content_store 	p_hit[10] 	0.068677376698647
scalar tree_4_3_u02_r16_network.node[10].content_store 	hits[10] 	2441
scalar tree_4_3_u02_r16_network.node[10].content_store 	misses[10] 	33102
scalar tree_4_3_u02_r16_network.node[10].content_store 	decision_yes[10] 	324
scalar tree_4_3_u02_r16_network.node[10].content_store 	decision_no[10] 	32778
scalar tree_4_3_u02_r16_network.node[10].content_store 	decision_ratio[10] 	0.0097879282218597
scalar tree_4_3_u02_r16_network.node[11].core_layer 	interests[11] 	20152
scalar tree_4_3_u02_r16_network.node[11].core_layer 	data[11] 	17333
scalar tree_4_3_u02_r16_network.node[11].content_store 	p_hit[11] 	0.13983723699881
scalar tree_4_3_u02_r16_network.node[11].content_store 	hits[11] 	2818
scalar tree_4_3_u02_r16_network.node[11].content_store 	misses[11] 	17334
scalar tree_4_3_u02_r16_network.node[11].content_store 	decision_yes[11] 	223
scalar tree_4_3_u02_r16_network.node[11].content_store 	decision_no[11] 	17110
scalar tree_4_3_u02_r16_network.node[11].content_store 	decision_ratio[11] 	0.012865632031385
scalar tree_4_3_u02_r16_network.node[12].core_layer 	interests[12] 	27453
scalar tree_4_3_u02_r16_network.node[12].core_layer 	data[12] 	25292
scalar tree_4_3_u02_r16_network.node[12].content_store 	p_hit[12] 	0.078716351582705
scalar tree_4_3_u02_r16_network.node[12].content_store 	hits[12] 	2161
scalar tree_4_3_u02_r16_network.node[12].content_store 	misses[12] 	25292
scalar tree_4_3_u02_r16_network.node[12].content_store 	decision_yes[12] 	271
scalar tree_4_3_u02_r16_network.node[12].content_store 	decision_no[12] 	25021
scalar tree_4_3_u02_r16_network.node[12].content_store 	decision_ratio[12] 	0.010714850545627
scalar tree_4_3_u02_r16_network.node[13].core_layer 	interests[13] 	12571
scalar tree_4_3_u02_r16_network.node[13].core_layer 	data[13] 	8809
scalar tree_4_3_u02_r16_network.node[13].content_store 	p_hit[13] 	0.29926020205234
scalar tree_4_3_u02_r16_network.node[13].content_store 	hits[13] 	3762
scalar tree_4_3_u02_r16_network.node[13].content_store 	misses[13] 	8809
scalar tree_4_3_u02_r16_network.node[13].content_store 	decision_yes[13] 	96
scalar tree_4_3_u02_r16_network.node[13].content_store 	decision_no[13] 	8713
scalar tree_4_3_u02_r16_network.node[13].content_store 	decision_ratio[13] 	0.010897945283233
scalar tree_4_3_u02_r16_network.node[14].core_layer 	interests[14] 	12665
scalar tree_4_3_u02_r16_network.node[14].core_layer 	data[14] 	8839
scalar tree_4_3_u02_r16_network.node[14].content_store 	p_hit[14] 	0.30217133833399
scalar tree_4_3_u02_r16_network.node[14].content_store 	hits[14] 	3827
scalar tree_4_3_u02_r16_network.node[14].content_store 	misses[14] 	8838
scalar tree_4_3_u02_r16_network.node[14].content_store 	decision_yes[14] 	109
scalar tree_4_3_u02_r16_network.node[14].content_store 	decision_no[14] 	8730
scalar tree_4_3_u02_r16_network.node[14].content_store 	decision_ratio[14] 	0.012331711732096
scalar tree_4_3_u02_r16_network.node[15].core_layer 	interests[15] 	12493
scalar tree_4_3_u02_r16_network.node[15].core_layer 	data[15] 	8856
scalar tree_4_3_u02_r16_network.node[15].content_store 	p_hit[15] 	0.29112302889618
scalar tree_4_3_u02_r16_network.node[15].content_store 	hits[15] 	3637
scalar tree_4_3_u02_r16_network.node[15].content_store 	misses[15] 	8856
scalar tree_4_3_u02_r16_network.node[15].content_store 	decision_yes[15] 	103
scalar tree_4_3_u02_r16_network.node[15].content_store 	decision_no[15] 	8753
scalar tree_4_3_u02_r16_network.node[15].content_store 	decision_ratio[15] 	0.011630532971996
scalar tree_4_3_u02_r16_network.node[16].core_layer 	interests[16] 	12376
scalar tree_4_3_u02_r16_network.node[16].core_layer 	data[16] 	8708
scalar tree_4_3_u02_r16_network.node[16].content_store 	p_hit[16] 	0.29638009049774
scalar tree_4_3_u02_r16_network.node[16].content_store 	hits[16] 	3668
scalar tree_4_3_u02_r16_network.node[16].content_store 	misses[16] 	8708
scalar tree_4_3_u02_r16_network.node[16].content_store 	decision_yes[16] 	97
scalar tree_4_3_u02_r16_network.node[16].content_store 	decision_no[16] 	8611
scalar tree_4_3_u02_r16_network.node[16].content_store 	decision_ratio[16] 	0.011139182361047
scalar tree_4_3_u02_r16_network.node[17].core_layer 	interests[17] 	12437
scalar tree_4_3_u02_r16_network.node[17].core_layer 	data[17] 	8750
scalar tree_4_3_u02_r16_network.node[17].content_store 	p_hit[17] 	0.2964541288092
scalar tree_4_3_u02_r16_network.node[17].content_store 	hits[17] 	3687
scalar tree_4_3_u02_r16_network.node[17].content_store 	misses[17] 	8750
scalar tree_4_3_u02_r16_network.node[17].content_store 	decision_yes[17] 	111
scalar tree_4_3_u02_r16_network.node[17].content_store 	decision_no[17] 	8639
scalar tree_4_3_u02_r16_network.node[17].content_store 	decision_ratio[17] 	0.012685714285714
scalar tree_4_3_u02_r16_network.node[18].core_layer 	interests[18] 	12562
scalar tree_4_3_u02_r16_network.node[18].core_layer 	data[18] 	8881
scalar tree_4_3_u02_r16_network.node[18].content_store 	p_hit[18] 	0.29302658812291
scalar tree_4_3_u02_r16_network.node[18].content_store 	hits[18] 	3681
scalar tree_4_3_u02_r16_network.node[18].content_store 	misses[18] 	8881
scalar tree_4_3_u02_r16_network.node[18].content_store 	decision_yes[18] 	103
scalar tree_4_3_u02_r16_network.node[18].content_store 	decision_no[18] 	8778
scalar tree_4_3_u02_r16_network.node[18].content_store 	decision_ratio[18] 	0.011597793041324
scalar tree_4_3_u02_r16_network.node[19].core_layer 	interests[19] 	12606
scalar tree_4_3_u02_r16_network.node[19].core_layer 	data[19] 	8820
scalar tree_4_3_u02_r16_network.node[19].content_store 	p_hit[19] 	0.30033317467872
scalar tree_4_3_u02_r16_network.node[19].content_store 	hits[19] 	3786
scalar tree_4_3_u02_r16_network.node[19].content_store 	misses[19] 	8820
scalar tree_4_3_u02_r16_network.node[19].content_store 	decision_yes[19] 	113
scalar tree_4_3_u02_r16_network.node[19].content_store 	decision_no[19] 	8707
scalar tree_4_3_u02_r16_network.node[19].content_store 	decision_ratio[19] 	0.01281179138322
scalar tree_4_3_u02_r16_network.node[20].core_layer 	interests[20] 	12583
scalar tree_4_3_u02_r16_network.node[20].core_layer 	data[20] 	8694
scalar tree_4_3_u02_r16_network.node[20].content_store 	p_hit[20] 	0.30906778987523
scalar tree_4_3_u02_r16_network.node[20].content_store 	hits[20] 	3889
scalar tree_4_3_u02_r16_network.node[20].content_store 	misses[20] 	8694
scalar tree_4_3_u02_r16_network.node[20].content_store 	decision_yes[20] 	104
scalar tree_4_3_u02_r16_network.node[20].content_store 	decision_no[20] 	8590
scalar tree_4_3_u02_r16_network.node[20].content_store 	decision_ratio[20] 	0.011962272831838
scalar tree_4_3_u02_r16_network.node[21].core_layer 	interests[21] 	12749
scalar tree_4_3_u02_r16_network.node[21].core_layer 	data[21] 	8861
scalar tree_4_3_u02_r16_network.node[21].content_store 	p_hit[21] 	0.30496509530159
scalar tree_4_3_u02_r16_network.node[21].content_store 	hits[21] 	3888
scalar tree_4_3_u02_r16_network.node[21].content_store 	misses[21] 	8861
scalar tree_4_3_u02_r16_network.node[21].content_store 	decision_yes[21] 	125
scalar tree_4_3_u02_r16_network.node[21].content_store 	decision_no[21] 	8736
scalar tree_4_3_u02_r16_network.node[21].content_store 	decision_ratio[21] 	0.014106759959373
scalar tree_4_3_u02_r16_network.node[22].core_layer 	interests[22] 	12459
scalar tree_4_3_u02_r16_network.node[22].core_layer 	data[22] 	8731
scalar tree_4_3_u02_r16_network.node[22].content_store 	p_hit[22] 	0.2991411830805
scalar tree_4_3_u02_r16_network.node[22].content_store 	hits[22] 	3727
scalar tree_4_3_u02_r16_network.node[22].content_store 	misses[22] 	8732
scalar tree_4_3_u02_r16_network.node[22].content_store 	decision_yes[22] 	113
scalar tree_4_3_u02_r16_network.node[22].content_store 	decision_no[22] 	8618
scalar tree_4_3_u02_r16_network.node[22].content_store 	decision_ratio[22] 	0.012942389187951
scalar tree_4_3_u02_r16_network.node[23].core_layer 	interests[23] 	12335
scalar tree_4_3_u02_r16_network.node[23].core_layer 	data[23] 	8804
scalar tree_4_3_u02_r16_network.node[23].content_store 	p_hit[23] 	0.28625861370085
scalar tree_4_3_u02_r16_network.node[23].content_store 	hits[23] 	3531
scalar tree_4_3_u02_r16_network.node[23].content_store 	misses[23] 	8804
scalar tree_4_3_u02_r16_network.node[23].content_store 	decision_yes[23] 	102
scalar tree_4_3_u02_r16_network.node[23].content_store 	decision_no[23] 	8702
scalar tree_4_3_u02_r16_network.node[23].content_store 	decision_ratio[23] 	0.011585642889596
scalar tree_4_3_u02_r16_network.node[24].core_layer 	interests[24] 	12879
scalar tree_4_3_u02_r16_network.node[24].core_layer 	data[24] 	8865
scalar tree_4_3_u02_r16_network.node[24].content_store 	p_hit[24] 	0.31167016072676
scalar tree_4_3_u02_r16_network.node[24].content_store 	hits[24] 	4014
scalar tree_4_3_u02_r16_network.node[24].content_store 	misses[24] 	8865
scalar tree_4_3_u02_r16_network.node[24].content_store 	decision_yes[24] 	102
scalar tree_4_3_u02_r16_network.node[24].content_store 	decision_no[24] 	8763
scalar tree_4_3_u02_r16_network.node[24].content_store 	decision_ratio[24] 	0.011505922165821
scalar tree_4_3_u02_r16_network.node[25].core_layer 	interests[25] 	12470
scalar tree_4_3_u02_r16_network.node[25].core_layer 	data[25] 	8799
scalar tree_4_3_u02_r16_network.node[25].content_store 	p_hit[25] 	0.29430633520449
scalar tree_4_3_u02_r16_network.node[25].content_store 	hits[25] 	3670
scalar tree_4_3_u02_r16_network.node[25].content_store 	misses[25] 	8800
scalar tree_4_3_u02_r16_network.node[25].content_store 	decision_yes[25] 	118
scalar tree_4_3_u02_r16_network.node[25].content_store 	decision_no[25] 	8681
scalar tree_4_3_u02_r16_network.node[25].content_store 	decision_ratio[25] 	0.013410614842596
scalar tree_4_3_u02_r16_network.node[26].core_layer 	interests[26] 	12754
scalar tree_4_3_u02_r16_network.node[26].core_layer 	data[26] 	8859
scalar tree_4_3_u02_r16_network.node[26].content_store 	p_hit[26] 	0.30539438607496
scalar tree_4_3_u02_r16_network.node[26].content_store 	hits[26] 	3895
scalar tree_4_3_u02_r16_network.node[26].content_store 	misses[26] 	8859
scalar tree_4_3_u02_r16_network.node[26].content_store 	decision_yes[26] 	97
scalar tree_4_3_u02_r16_network.node[26].content_store 	decision_no[26] 	8762
scalar tree_4_3_u02_r16_network.node[26].content_store 	decision_ratio[26] 	0.010949317078677
scalar tree_4_3_u02_r16_network.node[27].core_layer 	interests[27] 	12617
scalar tree_4_3_u02_r16_network.node[27].core_layer 	data[27] 	8766
scalar tree_4_3_u02_r16_network.node[27].content_store 	p_hit[27] 	0.30522311167472
scalar tree_4_3_u02_r16_network.node[27].content_store 	hits[27] 	3851
scalar tree_4_3_u02_r16_network.node[27].content_store 	misses[27] 	8766
scalar tree_4_3_u02_r16_network.node[27].content_store 	decision_yes[27] 	92
scalar tree_4_3_u02_r16_network.node[27].content_store 	decision_no[27] 	8674
scalar tree_4_3_u02_r16_network.node[27].content_store 	decision_ratio[27] 	0.010495094684006
scalar tree_4_3_u02_r16_network.node[28].core_layer 	interests[28] 	12687
scalar tree_4_3_u02_r16_network.node[28].core_layer 	data[28] 	8724
scalar tree_4_3_u02_r16_network.node[28].content_store 	p_hit[28] 	0.31220934815165
scalar tree_4_3_u02_r16_network.node[28].content_store 	hits[28] 	3961
scalar tree_4_3_u02_r16_network.node[28].content_store 	misses[28] 	8726
scalar tree_4_3_u02_r16_network.node[28].content_store 	decision_yes[28] 	115
scalar tree_4_3_u02_r16_network.node[28].content_store 	decision_no[28] 	8609
scalar tree_4_3_u02_r16_network.node[28].content_store 	decision_ratio[28] 	0.013182026593306
scalar tree_4_3_u02_r16_network.node[29].core_layer 	interests[29] 	12244
scalar tree_4_3_u02_r16_network.node[29].core_layer 	data[29] 	8718
scalar tree_4_3_u02_r16_network.node[29].content_store 	p_hit[29] 	0.28797778503757
scalar tree_4_3_u02_r16_network.node[29].content_store 	hits[29] 	3526
scalar tree_4_3_u02_r16_network.node[29].content_store 	misses[29] 	8718
scalar tree_4_3_u02_r16_network.node[29].content_store 	decision_yes[29] 	90
scalar tree_4_3_u02_r16_network.node[29].content_store 	decision_no[29] 	8628
scalar tree_4_3_u02_r16_network.node[29].content_store 	decision_ratio[29] 	0.010323468685478
scalar tree_4_3_u02_r16_network.node[30].core_layer 	interests[30] 	12403
scalar tree_4_3_u02_r16_network.node[30].core_layer 	data[30] 	8794
scalar tree_4_3_u02_r16_network.node[30].content_store 	p_hit[30] 	0.29097798919616
scalar tree_4_3_u02_r16_network.node[30].content_store 	hits[30] 	3609
scalar tree_4_3_u02_r16_network.node[30].content_store 	misses[30] 	8794
scalar tree_4_3_u02_r16_network.node[30].content_store 	decision_yes[30] 	113
scalar tree_4_3_u02_r16_network.node[30].content_store 	decision_no[30] 	8681
scalar tree_4_3_u02_r16_network.node[30].content_store 	decision_ratio[30] 	0.012849670229702
scalar tree_4_3_u02_r16_network.node[31].core_layer 	interests[31] 	12529
scalar tree_4_3_u02_r16_network.node[31].core_layer 	data[31] 	8915
scalar tree_4_3_u02_r16_network.node[31].content_store 	p_hit[31] 	0.28845079415755
scalar tree_4_3_u02_r16_network.node[31].content_store 	hits[31] 	3614
scalar tree_4_3_u02_r16_network.node[31].content_store 	misses[31] 	8915
scalar tree_4_3_u02_r16_network.node[31].content_store 	decision_yes[31] 	129
scalar tree_4_3_u02_r16_network.node[31].content_store 	decision_no[31] 	8786
scalar tree_4_3_u02_r16_network.node[31].content_store 	decision_ratio[31] 	0.014469994391475
scalar tree_4_3_u02_r16_network.node[32].core_layer 	interests[32] 	12834
scalar tree_4_3_u02_r16_network.node[32].core_layer 	data[32] 	8853
scalar tree_4_3_u02_r16_network.node[32].content_store 	p_hit[32] 	0.31011376032414
scalar tree_4_3_u02_r16_network.node[32].content_store 	hits[32] 	3980
scalar tree_4_3_u02_r16_network.node[32].content_store 	misses[32] 	8854
scalar tree_4_3_u02_r16_network.node[32].content_store 	decision_yes[32] 	125
scalar tree_4_3_u02_r16_network.node[32].content_store 	decision_no[32] 	8728
scalar tree_4_3_u02_r16_network.node[32].content_store 	decision_ratio[32] 	0.014119507511578
scalar tree_4_3_u02_r16_network.node[33].core_layer 	interests[33] 	12149
scalar tree_4_3_u02_r16_network.node[33].core_layer 	data[33] 	8588
scalar tree_4_3_u02_r16_network.node[33].content_store 	p_hit[33] 	0.2931105440777
scalar tree_4_3_u02_r16_network.node[33].content_store 	hits[33] 	3561
scalar tree_4_3_u02_r16_network.node[33].content_store 	misses[33] 	8588
scalar tree_4_3_u02_r16_network.node[33].content_store 	decision_yes[33] 	113
scalar tree_4_3_u02_r16_network.node[33].content_store 	decision_no[33] 	8475
scalar tree_4_3_u02_r16_network.node[33].content_store 	decision_ratio[33] 	0.013157894736842
scalar tree_4_3_u02_r16_network.node[34].core_layer 	interests[34] 	13117
scalar tree_4_3_u02_r16_network.node[34].core_layer 	data[34] 	8958
scalar tree_4_3_u02_r16_network.node[34].content_store 	p_hit[34] 	0.31706945185637
scalar tree_4_3_u02_r16_network.node[34].content_store 	hits[34] 	4159
scalar tree_4_3_u02_r16_network.node[34].content_store 	misses[34] 	8958
scalar tree_4_3_u02_r16_network.node[34].content_store 	decision_yes[34] 	119
scalar tree_4_3_u02_r16_network.node[34].content_store 	decision_no[34] 	8839
scalar tree_4_3_u02_r16_network.node[34].content_store 	decision_ratio[34] 	0.013284215226613
scalar tree_4_3_u02_r16_network.node[35].core_layer 	interests[35] 	12458
scalar tree_4_3_u02_r16_network.node[35].core_layer 	data[35] 	8723
scalar tree_4_3_u02_r16_network.node[35].content_store 	p_hit[35] 	0.29980735270509
scalar tree_4_3_u02_r16_network.node[35].content_store 	hits[35] 	3735
scalar tree_4_3_u02_r16_network.node[35].content_store 	misses[35] 	8723
scalar tree_4_3_u02_r16_network.node[35].content_store 	decision_yes[35] 	105
scalar tree_4_3_u02_r16_network.node[35].content_store 	decision_no[35] 	8618
scalar tree_4_3_u02_r16_network.node[35].content_store 	decision_ratio[35] 	0.012037143184684
scalar tree_4_3_u02_r16_network.node[36].core_layer 	interests[36] 	12453
scalar tree_4_3_u02_r16_network.node[36].core_layer 	data[36] 	8885
scalar tree_4_3_u02_r16_network.node[36].content_store 	p_hit[36] 	0.28643700313178
scalar tree_4_3_u02_r16_network.node[36].content_store 	hits[36] 	3567
scalar tree_4_3_u02_r16_network.node[36].content_store 	misses[36] 	8886
scalar tree_4_3_u02_r16_network.node[36].content_store 	decision_yes[36] 	115
scalar tree_4_3_u02_r16_network.node[36].content_store 	decision_no[36] 	8770
scalar tree_4_3_u02_r16_network.node[36].content_store 	decision_ratio[36] 	0.012943162633652
scalar tree_4_3_u02_r16_network.node[37].core_layer 	interests[37] 	12282
scalar tree_4_3_u02_r16_network.node[37].core_layer 	data[37] 	8666
scalar tree_4_3_u02_r16_network.node[37].content_store 	p_hit[37] 	0.2943331704934
scalar tree_4_3_u02_r16_network.node[37].content_store 	hits[37] 	3615
scalar tree_4_3_u02_r16_network.node[37].content_store 	misses[37] 	8667
scalar tree_4_3_u02_r16_network.node[37].content_store 	decision_yes[37] 	98
scalar tree_4_3_u02_r16_network.node[37].content_store 	decision_no[37] 	8568
scalar tree_4_3_u02_r16_network.node[37].content_store 	decision_ratio[37] 	0.011308562197092
scalar tree_4_3_u02_r16_network.node[38].core_layer 	interests[38] 	12609
scalar tree_4_3_u02_r16_network.node[38].core_layer 	data[38] 	8769
scalar tree_4_3_u02_r16_network.node[38].content_store 	p_hit[38] 	0.30454437306686
scalar tree_4_3_u02_r16_network.node[38].content_store 	hits[38] 	3840
scalar tree_4_3_u02_r16_network.node[38].content_store 	misses[38] 	8769
scalar tree_4_3_u02_r16_network.node[38].content_store 	decision_yes[38] 	102
scalar tree_4_3_u02_r16_network.node[38].content_store 	decision_no[38] 	8667
scalar tree_4_3_u02_r16_network.node[38].content_store 	decision_ratio[38] 	0.011631885049607
scalar tree_4_3_u02_r16_network.node[39].core_layer 	interests[39] 	12387
scalar tree_4_3_u02_r16_network.node[39].core_layer 	data[39] 	8773
scalar tree_4_3_u02_r16_network.node[39].content_store 	p_hit[39] 	0.29175748768871
scalar tree_4_3_u02_r16_network.node[39].content_store 	hits[39] 	3614
scalar tree_4_3_u02_r16_network.node[39].content_store 	misses[39] 	8773
scalar tree_4_3_u02_r16_network.node[39].content_store 	decision_yes[39] 	107
scalar tree_4_3_u02_r16_network.node[39].content_store 	decision_no[39] 	8666
scalar tree_4_3_u02_r16_network.node[39].content_store 	decision_ratio[39] 	0.012196512025533
scalar tree_4_3_u02_r16_network.client[13] 	hdistance[13] 	2.7046494219413
scalar tree_4_3_u02_r16_network.client[13] 	downloads[13] 	12023
scalar tree_4_3_u02_r16_network.client[13] 	avg_time[13] 	0.004195622058
scalar tree_4_3_u02_r16_network.client[14] 	hdistance[14] 	2.6650012286018
scalar tree_4_3_u02_r16_network.client[14] 	downloads[14] 	12209
scalar tree_4_3_u02_r16_network.client[14] 	avg_time[14] 	0.004144971997
scalar tree_4_3_u02_r16_network.client[15] 	hdistance[15] 	2.690142007926
scalar tree_4_3_u02_r16_network.client[15] 	downloads[15] 	12112
scalar tree_4_3_u02_r16_network.client[15] 	avg_time[15] 	0.00417734178
scalar tree_4_3_u02_r16_network.client[16] 	hdistance[16] 	2.7032182169566
scalar tree_4_3_u02_r16_network.client[16] 	downloads[16] 	11901
scalar tree_4_3_u02_r16_network.client[16] 	avg_time[16] 	0.00419124145
scalar tree_4_3_u02_r16_network.client[17] 	hdistance[17] 	2.6897069872277
scalar tree_4_3_u02_r16_network.client[17] 	downloads[17] 	11979
scalar tree_4_3_u02_r16_network.client[17] 	avg_time[17] 	0.004177140364
scalar tree_4_3_u02_r16_network.client[18] 	hdistance[18] 	2.7069533695831
scalar tree_4_3_u02_r16_network.client[18] 	downloads[18] 	12138
scalar tree_4_3_u02_r16_network.client[18] 	avg_time[18] 	0.004192615172
scalar tree_4_3_u02_r16_network.client[19] 	hdistance[19] 	2.6693447150389
scalar tree_4_3_u02_r16_network.client[19] 	downloads[19] 	11949
scalar tree_4_3_u02_r16_network.client[19] 	avg_time[19] 	0.004193318615
scalar tree_4_3_u02_r16_network.client[20] 	hdistance[20] 	2.6495122771611
scalar tree_4_3_u02_r16_network.client[20] 	downloads[20] 	11892
scalar tree_4_3_u02_r16_network.client[20] 	avg_time[20] 	0.004157077425
scalar tree_4_3_u02_r16_network.client[21] 	hdistance[21] 	2.6671375155796
scalar tree_4_3_u02_r16_network.client[21] 	downloads[21] 	12035
scalar tree_4_3_u02_r16_network.client[21] 	avg_time[21] 	0.004184625162
scalar tree_4_3_u02_r16_network.client[22] 	hdistance[22] 	2.6798895305047
scalar tree_4_3_u02_r16_network.client[22] 	downloads[22] 	11949
scalar tree_4_3_u02_r16_network.client[22] 	avg_time[22] 	0.004155745181
scalar tree_4_3_u02_r16_network.client[23] 	hdistance[23] 	2.6949067070096
scalar tree_4_3_u02_r16_network.client[23] 	downloads[23] 	11898
scalar tree_4_3_u02_r16_network.client[23] 	avg_time[23] 	0.004187829679
scalar tree_4_3_u02_r16_network.client[24] 	hdistance[24] 	2.6247107438017
scalar tree_4_3_u02_r16_network.client[24] 	downloads[24] 	12100
scalar tree_4_3_u02_r16_network.client[24] 	avg_time[24] 	0.004054497505
scalar tree_4_3_u02_r16_network.client[25] 	hdistance[25] 	2.6906949548948
scalar tree_4_3_u02_r16_network.client[25] 	downloads[25] 	11972
scalar tree_4_3_u02_r16_network.client[25] 	avg_time[25] 	0.004192073374
scalar tree_4_3_u02_r16_network.client[26] 	hdistance[26] 	2.6565763707572
scalar tree_4_3_u02_r16_network.client[26] 	downloads[26] 	12256
scalar tree_4_3_u02_r16_network.client[26] 	avg_time[26] 	0.004130382042
scalar tree_4_3_u02_r16_network.client[27] 	hdistance[27] 	2.6581118996534
scalar tree_4_3_u02_r16_network.client[27] 	downloads[27] 	12118
scalar tree_4_3_u02_r16_network.client[27] 	avg_time[27] 	0.004131206748
scalar tree_4_3_u02_r16_network.client[28] 	hdistance[28] 	2.6189913982122
scalar tree_4_3_u02_r16_network.client[28] 	downloads[28] 	11858
scalar tree_4_3_u02_r16_network.client[28] 	avg_time[28] 	0.0040522824
scalar tree_4_3_u02_r16_network.client[29] 	hdistance[29] 	2.692404637876
scalar tree_4_3_u02_r16_network.client[29] 	downloads[29] 	11902
scalar tree_4_3_u02_r16_network.client[29] 	avg_time[29] 	0.004180302862
scalar tree_4_3_u02_r16_network.client[30] 	hdistance[30] 	2.6806526806527
scalar tree_4_3_u02_r16_network.client[30] 	downloads[30] 	12012
scalar tree_4_3_u02_r16_network.client[30] 	avg_time[30] 	0.004159670678
scalar tree_4_3_u02_r16_network.client[31] 	hdistance[31] 	2.6911436368147
scalar tree_4_3_u02_r16_network.client[31] 	downloads[31] 	12093
scalar tree_4_3_u02_r16_network.client[31] 	avg_time[31] 	0.004199758076
scalar tree_4_3_u02_r16_network.client[32] 	hdistance[32] 	2.6282040577774
scalar tree_4_3_u02_r16_network.client[32] 	downloads[32] 	11977
scalar tree_4_3_u02_r16_network.client[32] 	avg_time[32] 	0.0040799915
scalar tree_4_3_u02_r16_network.client[33] 	hdistance[33] 	2.6854604476337
scalar tree_4_3_u02_r16_network.client[33] 	downloads[33] 	11706
scalar tree_4_3_u02_r16_network.client[33] 	avg_time[33] 	0.004180246523
scalar tree_4_3_u02_r16_network.client[34] 	hdistance[34] 	2.6265988848803
scalar tree_4_3_u02_r16_network.client[34] 	downloads[34] 	12196
scalar tree_4_3_u02_r16_network.client[34] 	avg_time[34] 	0.004070839863
scalar tree_4_3_u02_r16_network.client[35] 	hdistance[35] 	2.6427444139879
scalar tree_4_3_u02_r16_network.client[35] 	downloads[35] 	12039
scalar tree_4_3_u02_r16_network.client[35] 	avg_time[35] 	0.004123263027
scalar tree_4_3_u02_r16_network.client[36] 	hdistance[36] 	2.6778211409117
scalar tree_4_3_u02_r16_network.client[36] 	downloads[36] 	12043
scalar tree_4_3_u02_r16_network.client[36] 	avg_time[36] 	0.004179520366
scalar tree_4_3_u02_r16_network.client[37] 	hdistance[37] 	2.673039505964
scalar tree_4_3_u02_r16_network.client[37] 	downloads[37] 	11821
scalar tree_4_3_u02_r16_network.client[37] 	avg_time[37] 	0.004173078882
scalar tree_4_3_u02_r16_network.client[38] 	hdistance[38] 	2.6644862134636
scalar tree_4_3_u02_r16_network.client[38] 	downloads[38] 	12077
scalar tree_4_3_u02_r16_network.client[38] 	avg_time[38] 	0.00415301514
scalar tree_4_3_u02_r16_network.client[39] 	hdistance[39] 	2.6883705319684
scalar tree_4_3_u02_r16_network.client[39] 	downloads[39] 	11918
scalar tree_4_3_u02_r16_network.client[39] 	avg_time[39] 	0.004197513388
