version 2
run General-150-20160831-22:56:17-8710
attr a 0.9
attr cd ffc
attr configname General
attr cr lru
attr datetime 20160831-22:56:17
attr experiment General
attr fsize 1
attr inifile hw5115/scenario_Y/omnetp.ini
attr iterationvars "$name=tree_4_3, $un=02, $rep=11, $cd=ffc, $cr=lru, $fsize=1, $a=0.9, $sl=nrr, $ttl=1000, $variance=0.05"
attr iterationvars2 "$name=tree_4_3, $un=02, $rep=11, $cd=ffc, $cr=lru, $fsize=1, $a=0.9, $sl=nrr, $ttl=1000, $variance=0.05, $repetition=0"
attr measurement "$name=tree_4_3, $un=02, $rep=11, $cd=ffc, $cr=lru, $fsize=1, $a=0.9, $sl=nrr, $ttl=1000, $variance=0.05"
attr name tree_4_3
attr network networks.${name}_u${un}_r${rep}_network
attr processid 8710
attr rep 11
attr repetition 0
attr replication #0
attr resultdir results
attr runnumber 150
attr seedset 11
attr sl nrr
attr ttl 1000
attr un 02
attr variance 0.05

scalar . 	a 	0.9
scalar . 	fsize 	1
scalar . 	rep 	11
scalar . 	ttl 	1000
scalar . 	un 	02
scalar . 	variance 	0.05
scalar tree_4_3_u02_r11_network.content_distribution 	repo-0 	0
scalar tree_4_3_u02_r11_network.content_distribution 	client-0 	13
scalar tree_4_3_u02_r11_network.content_distribution 	client-1 	14
scalar tree_4_3_u02_r11_network.content_distribution 	client-2 	15
scalar tree_4_3_u02_r11_network.content_distribution 	client-3 	16
scalar tree_4_3_u02_r11_network.content_distribution 	client-4 	17
scalar tree_4_3_u02_r11_network.content_distribution 	client-5 	18
scalar tree_4_3_u02_r11_network.content_distribution 	client-6 	19
scalar tree_4_3_u02_r11_network.content_distribution 	client-7 	20
scalar tree_4_3_u02_r11_network.content_distribution 	client-8 	21
scalar tree_4_3_u02_r11_network.content_distribution 	client-9 	22
scalar tree_4_3_u02_r11_network.content_distribution 	client-10 	23
scalar tree_4_3_u02_r11_network.content_distribution 	client-11 	24
scalar tree_4_3_u02_r11_network.content_distribution 	client-12 	25
scalar tree_4_3_u02_r11_network.content_distribution 	client-13 	26
scalar tree_4_3_u02_r11_network.content_distribution 	client-14 	27
scalar tree_4_3_u02_r11_network.content_distribution 	client-15 	28
scalar tree_4_3_u02_r11_network.content_distribution 	client-16 	29
scalar tree_4_3_u02_r11_network.content_distribution 	client-17 	30
scalar tree_4_3_u02_r11_network.content_distribution 	client-18 	31
scalar tree_4_3_u02_r11_network.content_distribution 	client-19 	32
scalar tree_4_3_u02_r11_network.content_distribution 	client-20 	33
scalar tree_4_3_u02_r11_network.content_distribution 	client-21 	34
scalar tree_4_3_u02_r11_network.content_distribution 	client-22 	35
scalar tree_4_3_u02_r11_network.content_distribution 	client-23 	36
scalar tree_4_3_u02_r11_network.content_distribution 	client-24 	37
scalar tree_4_3_u02_r11_network.content_distribution 	client-25 	38
scalar tree_4_3_u02_r11_network.content_distribution 	client-26 	39
scalar tree_4_3_u02_r11_network.content_distribution 	repo-0_card 	100000
scalar tree_4_3_u02_r11_network.content_distribution 	repo-0_price 	0
scalar tree_4_3_u02_r11_network.statistics 	stabilization_time 	995.8
scalar tree_4_3_u02_r11_network.statistics 	p_hit 	0.22473832456046
scalar tree_4_3_u02_r11_network.statistics 	interests 	24984.425
scalar tree_4_3_u02_r11_network.statistics 	data 	16882.25
scalar tree_4_3_u02_r11_network.statistics 	hdistance 	2.6723128721486
scalar tree_4_3_u02_r11_network.statistics 	avg_time 	0.004167509754
scalar tree_4_3_u02_r11_network.statistics 	downloads 	324086
scalar tree_4_3_u02_r11_network.statistics 	total_cost 	0
scalar tree_4_3_u02_r11_network.statistics 	total_replicas 	100000
scalar tree_4_3_u02_r11_network.statistics 	inner_hit 	0.41149571410058
scalar tree_4_3_u02_r11_network.node[0].core_layer 	interests[0] 	193734
scalar tree_4_3_u02_r11_network.node[0].core_layer 	repo_load[0] 	190726
scalar tree_4_3_u02_r11_network.node[0].core_layer 	data[0] 	0
scalar tree_4_3_u02_r11_network.node[0].core_layer 	repo_int[0] 	190726
scalar tree_4_3_u02_r11_network.node[0].content_store 	p_hit[0] 	0.015526443474042
scalar tree_4_3_u02_r11_network.node[0].content_store 	hits[0] 	3008
scalar tree_4_3_u02_r11_network.node[0].content_store 	misses[0] 	190726
scalar tree_4_3_u02_r11_network.node[0].content_store 	decision_yes[0] 	938
scalar tree_4_3_u02_r11_network.node[0].content_store 	decision_no[0] 	189788
scalar tree_4_3_u02_r11_network.node[0].content_store 	decision_ratio[0] 	0.0049180499774546
scalar tree_4_3_u02_r11_network.node[1].core_layer 	interests[1] 	72212
scalar tree_4_3_u02_r11_network.node[1].core_layer 	data[1] 	70225
scalar tree_4_3_u02_r11_network.node[1].content_store 	p_hit[1] 	0.027516202293248
scalar tree_4_3_u02_r11_network.node[1].content_store 	hits[1] 	1987
scalar tree_4_3_u02_r11_network.node[1].content_store 	misses[1] 	70225
scalar tree_4_3_u02_r11_network.node[1].content_store 	decision_yes[1] 	509
scalar tree_4_3_u02_r11_network.node[1].content_store 	decision_no[1] 	69716
scalar tree_4_3_u02_r11_network.node[1].content_store 	decision_ratio[1] 	0.007248131007476
scalar tree_4_3_u02_r11_network.node[2].core_layer 	interests[2] 	91015
scalar tree_4_3_u02_r11_network.node[2].core_layer 	data[2] 	88869
scalar tree_4_3_u02_r11_network.node[2].content_store 	p_hit[2] 	0.023556556611548
scalar tree_4_3_u02_r11_network.node[2].content_store 	hits[2] 	2144
scalar tree_4_3_u02_r11_network.node[2].content_store 	misses[2] 	88871
scalar tree_4_3_u02_r11_network.node[2].content_store 	decision_yes[2] 	499
scalar tree_4_3_u02_r11_network.node[2].content_store 	decision_no[2] 	88370
scalar tree_4_3_u02_r11_network.node[2].content_store 	decision_ratio[2] 	0.0056150063576725
scalar tree_4_3_u02_r11_network.node[3].core_layer 	interests[3] 	51399
scalar tree_4_3_u02_r11_network.node[3].core_layer 	data[3] 	48478
scalar tree_4_3_u02_r11_network.node[3].content_store 	p_hit[3] 	0.056810443782953
scalar tree_4_3_u02_r11_network.node[3].content_store 	hits[3] 	2920
scalar tree_4_3_u02_r11_network.node[3].content_store 	misses[3] 	48479
scalar tree_4_3_u02_r11_network.node[3].content_store 	decision_yes[3] 	383
scalar tree_4_3_u02_r11_network.node[3].content_store 	decision_no[3] 	48095
scalar tree_4_3_u02_r11_network.node[3].content_store 	decision_ratio[3] 	0.0079004909443459
scalar tree_4_3_u02_r11_network.node[4].core_layer 	interests[4] 	27486
scalar tree_4_3_u02_r11_network.node[4].core_layer 	data[4] 	25373
scalar tree_4_3_u02_r11_network.node[4].content_store 	p_hit[4] 	0.076875500254675
scalar tree_4_3_u02_r11_network.node[4].content_store 	hits[4] 	2113
scalar tree_4_3_u02_r11_network.node[4].content_store 	misses[4] 	25373
scalar tree_4_3_u02_r11_network.node[4].content_store 	decision_yes[4] 	321
scalar tree_4_3_u02_r11_network.node[4].content_store 	decision_no[4] 	25052
scalar tree_4_3_u02_r11_network.node[4].content_store 	decision_ratio[4] 	0.012651243447759
scalar tree_4_3_u02_r11_network.node[5].core_layer 	interests[5] 	27838
scalar tree_4_3_u02_r11_network.node[5].core_layer 	data[5] 	25644
scalar tree_4_3_u02_r11_network.node[5].content_store 	p_hit[5] 	0.078777211006538
scalar tree_4_3_u02_r11_network.node[5].content_store 	hits[5] 	2193
scalar tree_4_3_u02_r11_network.node[5].content_store 	misses[5] 	25645
scalar tree_4_3_u02_r11_network.node[5].content_store 	decision_yes[5] 	303
scalar tree_4_3_u02_r11_network.node[5].content_store 	decision_no[5] 	25341
scalar tree_4_3_u02_r11_network.node[5].content_store 	decision_ratio[5] 	0.011815629386991
scalar tree_4_3_u02_r11_network.node[6].core_layer 	interests[6] 	27986
scalar tree_4_3_u02_r11_network.node[6].core_layer 	data[6] 	25786
scalar tree_4_3_u02_r11_network.node[6].content_store 	p_hit[6] 	0.078610733938398
scalar tree_4_3_u02_r11_network.node[6].content_store 	hits[6] 	2200
scalar tree_4_3_u02_r11_network.node[6].content_store 	misses[6] 	25786
scalar tree_4_3_u02_r11_network.node[6].content_store 	decision_yes[6] 	312
scalar tree_4_3_u02_r11_network.node[6].content_store 	decision_no[6] 	25474
scalar tree_4_3_u02_r11_network.node[6].content_store 	decision_ratio[6] 	0.012099588924222
scalar tree_4_3_u02_r11_network.node[7].core_layer 	interests[7] 	25916
scalar tree_4_3_u02_r11_network.node[7].core_layer 	data[7] 	24066
scalar tree_4_3_u02_r11_network.node[7].content_store 	p_hit[7] 	0.071423059114061
scalar tree_4_3_u02_r11_network.node[7].content_store 	hits[7] 	1851
scalar tree_4_3_u02_r11_network.node[7].content_store 	misses[7] 	24065
scalar tree_4_3_u02_r11_network.node[7].content_store 	decision_yes[7] 	179
scalar tree_4_3_u02_r11_network.node[7].content_store 	decision_no[7] 	23887
scalar tree_4_3_u02_r11_network.node[7].content_store 	decision_ratio[7] 	0.0074378791656279
scalar tree_4_3_u02_r11_network.node[8].core_layer 	interests[8] 	36194
scalar tree_4_3_u02_r11_network.node[8].core_layer 	data[8] 	33427
scalar tree_4_3_u02_r11_network.node[8].content_store 	p_hit[8] 	0.076393877438249
scalar tree_4_3_u02_r11_network.node[8].content_store 	hits[8] 	2765
scalar tree_4_3_u02_r11_network.node[8].content_store 	misses[8] 	33429
scalar tree_4_3_u02_r11_network.node[8].content_store 	decision_yes[8] 	352
scalar tree_4_3_u02_r11_network.node[8].content_store 	decision_no[8] 	33075
scalar tree_4_3_u02_r11_network.node[8].content_store 	decision_ratio[8] 	0.010530409549167
scalar tree_4_3_u02_r11_network.node[9].core_layer 	interests[9] 	22158
scalar tree_4_3_u02_r11_network.node[9].core_layer 	data[9] 	18741
scalar tree_4_3_u02_r11_network.node[9].content_store 	p_hit[9] 	0.15416553840599
scalar tree_4_3_u02_r11_network.node[9].content_store 	hits[9] 	3416
scalar tree_4_3_u02_r11_network.node[9].content_store 	misses[9] 	18742
scalar tree_4_3_u02_r11_network.node[9].content_store 	decision_yes[9] 	341
scalar tree_4_3_u02_r11_network.node[9].content_store 	decision_no[9] 	18400
scalar tree_4_3_u02_r11_network.node[9].content_store 	decision_ratio[9] 	0.018195400458887
scalar tree_4_3_u02_r11_network.node[10].core_layer 	interests[10] 	27588
scalar tree_4_3_u02_r11_network.node[10].core_layer 	data[10] 	25468
scalar tree_4_3_u02_r11_network.node[10].content_store 	p_hit[10] 	0.07684500507467
scalar tree_4_3_u02_r11_network.node[10].content_store 	hits[10] 	2120
scalar tree_4_3_u02_r11_network.node[10].content_store 	misses[10] 	25468
scalar tree_4_3_u02_r11_network.node[10].content_store 	decision_yes[10] 	286
scalar tree_4_3_u02_r11_network.node[10].content_store 	decision_no[10] 	25182
scalar tree_4_3_u02_r11_network.node[10].content_store 	decision_ratio[10] 	0.011229778545626
scalar tree_4_3_u02_r11_network.node[11].core_layer 	interests[11] 	28721
scalar tree_4_3_u02_r11_network.node[11].core_layer 	data[11] 	25655
scalar tree_4_3_u02_r11_network.node[11].content_store 	p_hit[11] 	0.1067511576895
scalar tree_4_3_u02_r11_network.node[11].content_store 	hits[11] 	3066
scalar tree_4_3_u02_r11_network.node[11].content_store 	misses[11] 	25655
scalar tree_4_3_u02_r11_network.node[11].content_store 	decision_yes[11] 	313
scalar tree_4_3_u02_r11_network.node[11].content_store 	decision_no[11] 	25342
scalar tree_4_3_u02_r11_network.node[11].content_store 	decision_ratio[11] 	0.012200350808809
scalar tree_4_3_u02_r11_network.node[12].core_layer 	interests[12] 	27795
scalar tree_4_3_u02_r11_network.node[12].core_layer 	data[12] 	25713
scalar tree_4_3_u02_r11_network.node[12].content_store 	p_hit[12] 	0.074905558553697
scalar tree_4_3_u02_r11_network.node[12].content_store 	hits[12] 	2082
scalar tree_4_3_u02_r11_network.node[12].content_store 	misses[12] 	25713
scalar tree_4_3_u02_r11_network.node[12].content_store 	decision_yes[12] 	280
scalar tree_4_3_u02_r11_network.node[12].content_store 	decision_no[12] 	25433
scalar tree_4_3_u02_r11_network.node[12].content_store 	decision_ratio[12] 	0.010889433360557
scalar tree_4_3_u02_r11_network.node[13].core_layer 	interests[13] 	12380
scalar tree_4_3_u02_r11_network.node[13].core_layer 	data[13] 	8661
scalar tree_4_3_u02_r11_network.node[13].content_store 	p_hit[13] 	0.30040387722132
scalar tree_4_3_u02_r11_network.node[13].content_store 	hits[13] 	3719
scalar tree_4_3_u02_r11_network.node[13].content_store 	misses[13] 	8661
scalar tree_4_3_u02_r11_network.node[13].content_store 	decision_yes[13] 	124
scalar tree_4_3_u02_r11_network.node[13].content_store 	decision_no[13] 	8537
scalar tree_4_3_u02_r11_network.node[13].content_store 	decision_ratio[13] 	0.01431705345803
scalar tree_4_3_u02_r11_network.node[14].core_layer 	interests[14] 	12512
scalar tree_4_3_u02_r11_network.node[14].core_layer 	data[14] 	8846
scalar tree_4_3_u02_r11_network.node[14].content_store 	p_hit[14] 	0.29299872122762
scalar tree_4_3_u02_r11_network.node[14].content_store 	hits[14] 	3666
scalar tree_4_3_u02_r11_network.node[14].content_store 	misses[14] 	8846
scalar tree_4_3_u02_r11_network.node[14].content_store 	decision_yes[14] 	112
scalar tree_4_3_u02_r11_network.node[14].content_store 	decision_no[14] 	8734
scalar tree_4_3_u02_r11_network.node[14].content_store 	decision_ratio[14] 	0.012661089758083
scalar tree_4_3_u02_r11_network.node[15].core_layer 	interests[15] 	12371
scalar tree_4_3_u02_r11_network.node[15].core_layer 	data[15] 	8642
scalar tree_4_3_u02_r11_network.node[15].content_store 	p_hit[15] 	0.301511599709
scalar tree_4_3_u02_r11_network.node[15].content_store 	hits[15] 	3730
scalar tree_4_3_u02_r11_network.node[15].content_store 	misses[15] 	8641
scalar tree_4_3_u02_r11_network.node[15].content_store 	decision_yes[15] 	102
scalar tree_4_3_u02_r11_network.node[15].content_store 	decision_no[15] 	8540
scalar tree_4_3_u02_r11_network.node[15].content_store 	decision_ratio[15] 	0.011802823420505
scalar tree_4_3_u02_r11_network.node[16].core_layer 	interests[16] 	12541
scalar tree_4_3_u02_r11_network.node[16].core_layer 	data[16] 	8825
scalar tree_4_3_u02_r11_network.node[16].content_store 	p_hit[16] 	0.29622837094331
scalar tree_4_3_u02_r11_network.node[16].content_store 	hits[16] 	3715
scalar tree_4_3_u02_r11_network.node[16].content_store 	misses[16] 	8826
scalar tree_4_3_u02_r11_network.node[16].content_store 	decision_yes[16] 	111
scalar tree_4_3_u02_r11_network.node[16].content_store 	decision_no[16] 	8714
scalar tree_4_3_u02_r11_network.node[16].content_store 	decision_ratio[16] 	0.01257790368272
scalar tree_4_3_u02_r11_network.node[17].core_layer 	interests[17] 	12671
scalar tree_4_3_u02_r11_network.node[17].core_layer 	data[17] 	8932
scalar tree_4_3_u02_r11_network.node[17].content_store 	p_hit[17] 	0.29500434062031
scalar tree_4_3_u02_r11_network.node[17].content_store 	hits[17] 	3738
scalar tree_4_3_u02_r11_network.node[17].content_store 	misses[17] 	8933
scalar tree_4_3_u02_r11_network.node[17].content_store 	decision_yes[17] 	127
scalar tree_4_3_u02_r11_network.node[17].content_store 	decision_no[17] 	8805
scalar tree_4_3_u02_r11_network.node[17].content_store 	decision_ratio[17] 	0.014218540080609
scalar tree_4_3_u02_r11_network.node[18].core_layer 	interests[18] 	12503
scalar tree_4_3_u02_r11_network.node[18].core_layer 	data[18] 	8817
scalar tree_4_3_u02_r11_network.node[18].content_store 	p_hit[18] 	0.29480924578101
scalar tree_4_3_u02_r11_network.node[18].content_store 	hits[18] 	3686
scalar tree_4_3_u02_r11_network.node[18].content_store 	misses[18] 	8817
scalar tree_4_3_u02_r11_network.node[18].content_store 	decision_yes[18] 	119
scalar tree_4_3_u02_r11_network.node[18].content_store 	decision_no[18] 	8698
scalar tree_4_3_u02_r11_network.node[18].content_store 	decision_ratio[18] 	0.013496654190768
scalar tree_4_3_u02_r11_network.node[19].core_layer 	interests[19] 	12503
scalar tree_4_3_u02_r11_network.node[19].core_layer 	data[19] 	8872
scalar tree_4_3_u02_r11_network.node[19].content_store 	p_hit[19] 	0.29041030152763
scalar tree_4_3_u02_r11_network.node[19].content_store 	hits[19] 	3631
scalar tree_4_3_u02_r11_network.node[19].content_store 	misses[19] 	8872
scalar tree_4_3_u02_r11_network.node[19].content_store 	decision_yes[19] 	124
scalar tree_4_3_u02_r11_network.node[19].content_store 	decision_no[19] 	8748
scalar tree_4_3_u02_r11_network.node[19].content_store 	decision_ratio[19] 	0.013976555455365
scalar tree_4_3_u02_r11_network.node[20].core_layer 	interests[20] 	12544
scalar tree_4_3_u02_r11_network.node[20].core_layer 	data[20] 	8883
scalar tree_4_3_u02_r11_network.node[20].content_store 	p_hit[20] 	0.29185267857143
scalar tree_4_3_u02_r11_network.node[20].content_store 	hits[20] 	3661
scalar tree_4_3_u02_r11_network.node[20].content_store 	misses[20] 	8883
scalar tree_4_3_u02_r11_network.node[20].content_store 	decision_yes[20] 	104
scalar tree_4_3_u02_r11_network.node[20].content_store 	decision_no[20] 	8779
scalar tree_4_3_u02_r11_network.node[20].content_store 	decision_ratio[20] 	0.011707756388607
scalar tree_4_3_u02_r11_network.node[21].core_layer 	interests[21] 	12581
scalar tree_4_3_u02_r11_network.node[21].core_layer 	data[21] 	8891
scalar tree_4_3_u02_r11_network.node[21].content_store 	p_hit[21] 	0.29329941975996
scalar tree_4_3_u02_r11_network.node[21].content_store 	hits[21] 	3690
scalar tree_4_3_u02_r11_network.node[21].content_store 	misses[21] 	8891
scalar tree_4_3_u02_r11_network.node[21].content_store 	decision_yes[21] 	113
scalar tree_4_3_u02_r11_network.node[21].content_store 	decision_no[21] 	8778
scalar tree_4_3_u02_r11_network.node[21].content_store 	decision_ratio[21] 	0.012709481498144
scalar tree_4_3_u02_r11_network.node[22].core_layer 	interests[22] 	12244
scalar tree_4_3_u02_r11_network.node[22].core_layer 	data[22] 	8734
scalar tree_4_3_u02_r11_network.node[22].content_store 	p_hit[22] 	0.28667102254165
scalar tree_4_3_u02_r11_network.node[22].content_store 	hits[22] 	3510
scalar tree_4_3_u02_r11_network.node[22].content_store 	misses[22] 	8734
scalar tree_4_3_u02_r11_network.node[22].content_store 	decision_yes[22] 	111
scalar tree_4_3_u02_r11_network.node[22].content_store 	decision_no[22] 	8623
scalar tree_4_3_u02_r11_network.node[22].content_store 	decision_ratio[22] 	0.012708953514999
scalar tree_4_3_u02_r11_network.node[23].core_layer 	interests[23] 	13033
scalar tree_4_3_u02_r11_network.node[23].core_layer 	data[23] 	8843
scalar tree_4_3_u02_r11_network.node[23].content_store 	p_hit[23] 	0.32156832655567
scalar tree_4_3_u02_r11_network.node[23].content_store 	hits[23] 	4191
scalar tree_4_3_u02_r11_network.node[23].content_store 	misses[23] 	8842
scalar tree_4_3_u02_r11_network.node[23].content_store 	decision_yes[23] 	105
scalar tree_4_3_u02_r11_network.node[23].content_store 	decision_no[23] 	8738
scalar tree_4_3_u02_r11_network.node[23].content_store 	decision_ratio[23] 	0.011873798484677
scalar tree_4_3_u02_r11_network.node[24].core_layer 	interests[24] 	13244
scalar tree_4_3_u02_r11_network.node[24].core_layer 	data[24] 	9010
scalar tree_4_3_u02_r11_network.node[24].content_store 	p_hit[24] 	0.31969193597101
scalar tree_4_3_u02_r11_network.node[24].content_store 	hits[24] 	4234
scalar tree_4_3_u02_r11_network.node[24].content_store 	misses[24] 	9010
scalar tree_4_3_u02_r11_network.node[24].content_store 	decision_yes[24] 	115
scalar tree_4_3_u02_r11_network.node[24].content_store 	decision_no[24] 	8895
scalar tree_4_3_u02_r11_network.node[24].content_store 	decision_ratio[24] 	0.01276359600444
scalar tree_4_3_u02_r11_network.node[25].core_layer 	interests[25] 	12388
scalar tree_4_3_u02_r11_network.node[25].core_layer 	data[25] 	8718
scalar tree_4_3_u02_r11_network.node[25].content_store 	p_hit[25] 	0.29625443978043
scalar tree_4_3_u02_r11_network.node[25].content_store 	hits[25] 	3670
scalar tree_4_3_u02_r11_network.node[25].content_store 	misses[25] 	8718
scalar tree_4_3_u02_r11_network.node[25].content_store 	decision_yes[25] 	128
scalar tree_4_3_u02_r11_network.node[25].content_store 	decision_no[25] 	8590
scalar tree_4_3_u02_r11_network.node[25].content_store 	decision_ratio[25] 	0.014682266574902
scalar tree_4_3_u02_r11_network.node[26].core_layer 	interests[26] 	12627
scalar tree_4_3_u02_r11_network.node[26].core_layer 	data[26] 	8955
scalar tree_4_3_u02_r11_network.node[26].content_store 	p_hit[26] 	0.29080541696365
scalar tree_4_3_u02_r11_network.node[26].content_store 	hits[26] 	3672
scalar tree_4_3_u02_r11_network.node[26].content_store 	misses[26] 	8955
scalar tree_4_3_u02_r11_network.node[26].content_store 	decision_yes[26] 	116
scalar tree_4_3_u02_r11_network.node[26].content_store 	decision_no[26] 	8839
scalar tree_4_3_u02_r11_network.node[26].content_store 	decision_ratio[26] 	0.012953657174763
scalar tree_4_3_u02_r11_network.node[27].core_layer 	interests[27] 	12497
scalar tree_4_3_u02_r11_network.node[27].core_layer 	data[27] 	8701
scalar tree_4_3_u02_r11_network.node[27].content_store 	p_hit[27] 	0.30375290069617
scalar tree_4_3_u02_r11_network.node[27].content_store 	hits[27] 	3796
scalar tree_4_3_u02_r11_network.node[27].content_store 	misses[27] 	8701
scalar tree_4_3_u02_r11_network.node[27].content_store 	decision_yes[27] 	112
scalar tree_4_3_u02_r11_network.node[27].content_store 	decision_no[27] 	8589
scalar tree_4_3_u02_r11_network.node[27].content_store 	decision_ratio[27] 	0.012872083668544
scalar tree_4_3_u02_r11_network.node[28].core_layer 	interests[28] 	12462
scalar tree_4_3_u02_r11_network.node[28].core_layer 	data[28] 	8760
scalar tree_4_3_u02_r11_network.node[28].content_store 	p_hit[28] 	0.29706307173808
scalar tree_4_3_u02_r11_network.node[28].content_store 	hits[28] 	3702
scalar tree_4_3_u02_r11_network.node[28].content_store 	misses[28] 	8760
scalar tree_4_3_u02_r11_network.node[28].content_store 	decision_yes[28] 	128
scalar tree_4_3_u02_r11_network.node[28].content_store 	decision_no[28] 	8632
scalar tree_4_3_u02_r11_network.node[28].content_store 	decision_ratio[28] 	0.014611872146119
scalar tree_4_3_u02_r11_network.node[29].core_layer 	interests[29] 	13159
scalar tree_4_3_u02_r11_network.node[29].core_layer 	data[29] 	8870
scalar tree_4_3_u02_r11_network.node[29].content_store 	p_hit[29] 	0.32586062770727
scalar tree_4_3_u02_r11_network.node[29].content_store 	hits[29] 	4288
scalar tree_4_3_u02_r11_network.node[29].content_store 	misses[29] 	8871
scalar tree_4_3_u02_r11_network.node[29].content_store 	decision_yes[29] 	100
scalar tree_4_3_u02_r11_network.node[29].content_store 	decision_no[29] 	8770
scalar tree_4_3_u02_r11_network.node[29].content_store 	decision_ratio[29] 	0.011273957158963
scalar tree_4_3_u02_r11_network.node[30].core_layer 	interests[30] 	12653
scalar tree_4_3_u02_r11_network.node[30].core_layer 	data[30] 	8873
scalar tree_4_3_u02_r11_network.node[30].content_store 	p_hit[30] 	0.29866434837588
scalar tree_4_3_u02_r11_network.node[30].content_store 	hits[30] 	3779
scalar tree_4_3_u02_r11_network.node[30].content_store 	misses[30] 	8874
scalar tree_4_3_u02_r11_network.node[30].content_store 	decision_yes[30] 	119
scalar tree_4_3_u02_r11_network.node[30].content_store 	decision_no[30] 	8754
scalar tree_4_3_u02_r11_network.node[30].content_store 	decision_ratio[30] 	0.013411473008002
scalar tree_4_3_u02_r11_network.node[31].core_layer 	interests[31] 	12461
scalar tree_4_3_u02_r11_network.node[31].core_layer 	data[31] 	8636
scalar tree_4_3_u02_r11_network.node[31].content_store 	p_hit[31] 	0.30695770804911
scalar tree_4_3_u02_r11_network.node[31].content_store 	hits[31] 	3825
scalar tree_4_3_u02_r11_network.node[31].content_store 	misses[31] 	8636
scalar tree_4_3_u02_r11_network.node[31].content_store 	decision_yes[31] 	103
scalar tree_4_3_u02_r11_network.node[31].content_store 	decision_no[31] 	8533
scalar tree_4_3_u02_r11_network.node[31].content_store 	decision_ratio[31] 	0.011926817971283
scalar tree_4_3_u02_r11_network.node[32].core_layer 	interests[32] 	12565
scalar tree_4_3_u02_r11_network.node[32].core_layer 	data[32] 	8866
scalar tree_4_3_u02_r11_network.node[32].content_store 	p_hit[32] 	0.29438917628333
scalar tree_4_3_u02_r11_network.node[32].content_store 	hits[32] 	3699
scalar tree_4_3_u02_r11_network.node[32].content_store 	misses[32] 	8866
scalar tree_4_3_u02_r11_network.node[32].content_store 	decision_yes[32] 	106
scalar tree_4_3_u02_r11_network.node[32].content_store 	decision_no[32] 	8760
scalar tree_4_3_u02_r11_network.node[32].content_store 	decision_ratio[32] 	0.011955786149335
scalar tree_4_3_u02_r11_network.node[33].core_layer 	interests[33] 	12495
scalar tree_4_3_u02_r11_network.node[33].core_layer 	data[33] 	8841
scalar tree_4_3_u02_r11_network.node[33].content_store 	p_hit[33] 	0.29243697478992
scalar tree_4_3_u02_r11_network.node[33].content_store 	hits[33] 	3654
scalar tree_4_3_u02_r11_network.node[33].content_store 	misses[33] 	8841
scalar tree_4_3_u02_r11_network.node[33].content_store 	decision_yes[33] 	108
scalar tree_4_3_u02_r11_network.node[33].content_store 	decision_no[33] 	8733
scalar tree_4_3_u02_r11_network.node[33].content_store 	decision_ratio[33] 	0.012215812690872
scalar tree_4_3_u02_r11_network.node[34].core_layer 	interests[34] 	12409
scalar tree_4_3_u02_r11_network.node[34].core_layer 	data[34] 	8553
scalar tree_4_3_u02_r11_network.node[34].content_store 	p_hit[34] 	0.31074220323958
scalar tree_4_3_u02_r11_network.node[34].content_store 	hits[34] 	3856
scalar tree_4_3_u02_r11_network.node[34].content_store 	misses[34] 	8553
scalar tree_4_3_u02_r11_network.node[34].content_store 	decision_yes[34] 	95
scalar tree_4_3_u02_r11_network.node[34].content_store 	decision_no[34] 	8458
scalar tree_4_3_u02_r11_network.node[34].content_store 	decision_ratio[34] 	0.011107213843096
scalar tree_4_3_u02_r11_network.node[35].core_layer 	interests[35] 	12581
scalar tree_4_3_u02_r11_network.node[35].core_layer 	data[35] 	8785
scalar tree_4_3_u02_r11_network.node[35].content_store 	p_hit[35] 	0.30172482314601
scalar tree_4_3_u02_r11_network.node[35].content_store 	hits[35] 	3796
scalar tree_4_3_u02_r11_network.node[35].content_store 	misses[35] 	8785
scalar tree_4_3_u02_r11_network.node[35].content_store 	decision_yes[35] 	106
scalar tree_4_3_u02_r11_network.node[35].content_store 	decision_no[35] 	8679
scalar tree_4_3_u02_r11_network.node[35].content_store 	decision_ratio[35] 	0.012066021627775
scalar tree_4_3_u02_r11_network.node[36].core_layer 	interests[36] 	12613
scalar tree_4_3_u02_r11_network.node[36].core_layer 	data[36] 	8830
scalar tree_4_3_u02_r11_network.node[36].content_store 	p_hit[36] 	0.29992864504876
scalar tree_4_3_u02_r11_network.node[36].content_store 	hits[36] 	3783
scalar tree_4_3_u02_r11_network.node[36].content_store 	misses[36] 	8830
scalar tree_4_3_u02_r11_network.node[36].content_store 	decision_yes[36] 	125
scalar tree_4_3_u02_r11_network.node[36].content_store 	decision_no[36] 	8705
scalar tree_4_3_u02_r11_network.node[36].content_store 	decision_ratio[36] 	0.014156285390713
scalar tree_4_3_u02_r11_network.node[37].core_layer 	interests[37] 	12323
scalar tree_4_3_u02_r11_network.node[37].core_layer 	data[37] 	8766
scalar tree_4_3_u02_r11_network.node[37].content_store 	p_hit[37] 	0.2885660959182
scalar tree_4_3_u02_r11_network.node[37].content_store 	hits[37] 	3556
scalar tree_4_3_u02_r11_network.node[37].content_store 	misses[37] 	8767
scalar tree_4_3_u02_r11_network.node[37].content_store 	decision_yes[37] 	117
scalar tree_4_3_u02_r11_network.node[37].content_store 	decision_no[37] 	8649
scalar tree_4_3_u02_r11_network.node[37].content_store 	decision_ratio[37] 	0.013347022587269
scalar tree_4_3_u02_r11_network.node[38].core_layer 	interests[38] 	12486
scalar tree_4_3_u02_r11_network.node[38].core_layer 	data[38] 	8885
scalar tree_4_3_u02_r11_network.node[38].content_store 	p_hit[38] 	0.28840301137274
scalar tree_4_3_u02_r11_network.node[38].content_store 	hits[38] 	3601
scalar tree_4_3_u02_r11_network.node[38].content_store 	misses[38] 	8885
scalar tree_4_3_u02_r11_network.node[38].content_store 	decision_yes[38] 	107
scalar tree_4_3_u02_r11_network.node[38].content_store 	decision_no[38] 	8778
scalar tree_4_3_u02_r11_network.node[38].content_store 	decision_ratio[38] 	0.012042768711311
scalar tree_4_3_u02_r11_network.node[39].core_layer 	interests[39] 	12489
scalar tree_4_3_u02_r11_network.node[39].core_layer 	data[39] 	8850
scalar tree_4_3_u02_r11_network.node[39].content_store 	p_hit[39] 	0.29137641124189
scalar tree_4_3_u02_r11_network.node[39].content_store 	hits[39] 	3639
scalar tree_4_3_u02_r11_network.node[39].content_store 	misses[39] 	8850
scalar tree_4_3_u02_r11_network.node[39].content_store 	decision_yes[39] 	114
scalar tree_4_3_u02_r11_network.node[39].content_store 	decision_no[39] 	8736
scalar tree_4_3_u02_r11_network.node[39].content_store 	decision_ratio[39] 	0.012881355932203
scalar tree_4_3_u02_r11_network.client[13] 	hdistance[13] 	2.6840819078116
scalar tree_4_3_u02_r11_network.client[13] 	downloads[13] 	11867
scalar tree_4_3_u02_r11_network.client[13] 	avg_time[13] 	0.004167351879
scalar tree_4_3_u02_r11_network.client[14] 	hdistance[14] 	2.7163481598932
scalar tree_4_3_u02_r11_network.client[14] 	downloads[14] 	11983
scalar tree_4_3_u02_r11_network.client[14] 	avg_time[14] 	0.004217638652
scalar tree_4_3_u02_r11_network.client[15] 	hdistance[15] 	2.6865659039095
scalar tree_4_3_u02_r11_network.client[15] 	downloads[15] 	11843
scalar tree_4_3_u02_r11_network.client[15] 	avg_time[15] 	0.004172588429
scalar tree_4_3_u02_r11_network.client[16] 	hdistance[16] 	2.6968089515126
scalar tree_4_3_u02_r11_network.client[16] 	downloads[16] 	12065
scalar tree_4_3_u02_r11_network.client[16] 	avg_time[16] 	0.0041850469
scalar tree_4_3_u02_r11_network.client[17] 	hdistance[17] 	2.689522089013
scalar tree_4_3_u02_r11_network.client[17] 	downloads[17] 	12178
scalar tree_4_3_u02_r11_network.client[17] 	avg_time[17] 	0.004175946782
scalar tree_4_3_u02_r11_network.client[18] 	hdistance[18] 	2.6898391264483
scalar tree_4_3_u02_r11_network.client[18] 	downloads[18] 	11997
scalar tree_4_3_u02_r11_network.client[18] 	avg_time[18] 	0.004176541127
scalar tree_4_3_u02_r11_network.client[19] 	hdistance[19] 	2.7198469472633
scalar tree_4_3_u02_r11_network.client[19] 	downloads[19] 	12022
scalar tree_4_3_u02_r11_network.client[19] 	avg_time[19] 	0.004224252504
scalar tree_4_3_u02_r11_network.client[20] 	hdistance[20] 	2.7167846730529
scalar tree_4_3_u02_r11_network.client[20] 	downloads[20] 	12005
scalar tree_4_3_u02_r11_network.client[20] 	avg_time[20] 	0.00421707322
scalar tree_4_3_u02_r11_network.client[21] 	hdistance[21] 	2.6986892317903
scalar tree_4_3_u02_r11_network.client[21] 	downloads[21] 	12054
scalar tree_4_3_u02_r11_network.client[21] 	avg_time[21] 	0.004191302803
scalar tree_4_3_u02_r11_network.client[22] 	hdistance[22] 	2.6931181536918
scalar tree_4_3_u02_r11_network.client[22] 	downloads[22] 	11959
scalar tree_4_3_u02_r11_network.client[22] 	avg_time[22] 	0.0042112187
scalar tree_4_3_u02_r11_network.client[23] 	hdistance[23] 	2.6172737077906
scalar tree_4_3_u02_r11_network.client[23] 	downloads[23] 	12053
scalar tree_4_3_u02_r11_network.client[23] 	avg_time[23] 	0.004063383691
scalar tree_4_3_u02_r11_network.client[24] 	hdistance[24] 	2.5842450765864
scalar tree_4_3_u02_r11_network.client[24] 	downloads[24] 	12339
scalar tree_4_3_u02_r11_network.client[24] 	avg_time[24] 	0.004043436413
scalar tree_4_3_u02_r11_network.client[25] 	hdistance[25] 	2.6588205517591
scalar tree_4_3_u02_r11_network.client[25] 	downloads[25] 	11853
scalar tree_4_3_u02_r11_network.client[25] 	avg_time[25] 	0.004149604948
scalar tree_4_3_u02_r11_network.client[26] 	hdistance[26] 	2.6831789612967
scalar tree_4_3_u02_r11_network.client[26] 	downloads[26] 	12092
scalar tree_4_3_u02_r11_network.client[26] 	avg_time[26] 	0.00418392021
scalar tree_4_3_u02_r11_network.client[27] 	hdistance[27] 	2.6308691308691
scalar tree_4_3_u02_r11_network.client[27] 	downloads[27] 	12012
scalar tree_4_3_u02_r11_network.client[27] 	avg_time[27] 	0.004103350914
scalar tree_4_3_u02_r11_network.client[28] 	hdistance[28] 	2.6292707376159
scalar tree_4_3_u02_r11_network.client[28] 	downloads[28] 	11971
scalar tree_4_3_u02_r11_network.client[28] 	avg_time[28] 	0.004127638809
scalar tree_4_3_u02_r11_network.client[29] 	hdistance[29] 	2.6075
scalar tree_4_3_u02_r11_network.client[29] 	downloads[29] 	12000
scalar tree_4_3_u02_r11_network.client[29] 	avg_time[29] 	0.004066330337
scalar tree_4_3_u02_r11_network.client[30] 	hdistance[30] 	2.6415562913907
scalar tree_4_3_u02_r11_network.client[30] 	downloads[30] 	12080
scalar tree_4_3_u02_r11_network.client[30] 	avg_time[30] 	0.004149334751
scalar tree_4_3_u02_r11_network.client[31] 	hdistance[31] 	2.6509876129896
scalar tree_4_3_u02_r11_network.client[31] 	downloads[31] 	11948
scalar tree_4_3_u02_r11_network.client[31] 	avg_time[31] 	0.004135082373
scalar tree_4_3_u02_r11_network.client[32] 	hdistance[32] 	2.6790897097625
scalar tree_4_3_u02_r11_network.client[32] 	downloads[32] 	12128
scalar tree_4_3_u02_r11_network.client[32] 	avg_time[32] 	0.004180735787
scalar tree_4_3_u02_r11_network.client[33] 	hdistance[33] 	2.6953416922694
scalar tree_4_3_u02_r11_network.client[33] 	downloads[33] 	12043
scalar tree_4_3_u02_r11_network.client[33] 	avg_time[33] 	0.004204573211
scalar tree_4_3_u02_r11_network.client[34] 	hdistance[34] 	2.6451997614788
scalar tree_4_3_u02_r11_network.client[34] 	downloads[34] 	11739
scalar tree_4_3_u02_r11_network.client[34] 	avg_time[34] 	0.004145418868
scalar tree_4_3_u02_r11_network.client[35] 	hdistance[35] 	2.6465337448903
scalar tree_4_3_u02_r11_network.client[35] 	downloads[35] 	11987
scalar tree_4_3_u02_r11_network.client[35] 	avg_time[35] 	0.004154831423
scalar tree_4_3_u02_r11_network.client[36] 	hdistance[36] 	2.6478521478521
scalar tree_4_3_u02_r11_network.client[36] 	downloads[36] 	12012
scalar tree_4_3_u02_r11_network.client[36] 	avg_time[36] 	0.004164998634
scalar tree_4_3_u02_r11_network.client[37] 	hdistance[37] 	2.7158708809684
scalar tree_4_3_u02_r11_network.client[37] 	downloads[37] 	11896
scalar tree_4_3_u02_r11_network.client[37] 	avg_time[37] 	0.004234814073
scalar tree_4_3_u02_r11_network.client[38] 	hdistance[38] 	2.7246195015889
scalar tree_4_3_u02_r11_network.client[38] 	downloads[38] 	11958
scalar tree_4_3_u02_r11_network.client[38] 	avg_time[38] 	0.004254554627
scalar tree_4_3_u02_r11_network.client[39] 	hdistance[39] 	2.7026328945176
scalar tree_4_3_u02_r11_network.client[39] 	downloads[39] 	12002
scalar tree_4_3_u02_r11_network.client[39] 	avg_time[39] 	0.004221793315
