version 2
run General-147-20160831-22:50:48-8710
attr a 0.9
attr cd ffc
attr configname General
attr cr lru
attr datetime 20160831-22:50:48
attr experiment General
attr fsize 1
attr inifile hw5115/scenario_Y/omnetp.ini
attr iterationvars "$name=tree_4_3, $un=02, $rep=10, $cd=ffc, $cr=lru, $fsize=1, $a=0.9, $sl=nrr, $ttl=1000, $variance=0.05"
attr iterationvars2 "$name=tree_4_3, $un=02, $rep=10, $cd=ffc, $cr=lru, $fsize=1, $a=0.9, $sl=nrr, $ttl=1000, $variance=0.05, $repetition=0"
attr measurement "$name=tree_4_3, $un=02, $rep=10, $cd=ffc, $cr=lru, $fsize=1, $a=0.9, $sl=nrr, $ttl=1000, $variance=0.05"
attr name tree_4_3
attr network networks.${name}_u${un}_r${rep}_network
attr processid 8710
attr rep 10
attr repetition 0
attr replication #0
attr resultdir results
attr runnumber 147
attr seedset 10
attr sl nrr
attr ttl 1000
attr un 02
attr variance 0.05

scalar . 	a 	0.9
scalar . 	fsize 	1
scalar . 	rep 	10
scalar . 	ttl 	1000
scalar . 	un 	02
scalar . 	variance 	0.05
scalar tree_4_3_u02_r10_network.content_distribution 	repo-0 	0
scalar tree_4_3_u02_r10_network.content_distribution 	client-0 	13
scalar tree_4_3_u02_r10_network.content_distribution 	client-1 	14
scalar tree_4_3_u02_r10_network.content_distribution 	client-2 	15
scalar tree_4_3_u02_r10_network.content_distribution 	client-3 	16
scalar tree_4_3_u02_r10_network.content_distribution 	client-4 	17
scalar tree_4_3_u02_r10_network.content_distribution 	client-5 	18
scalar tree_4_3_u02_r10_network.content_distribution 	client-6 	19
scalar tree_4_3_u02_r10_network.content_distribution 	client-7 	20
scalar tree_4_3_u02_r10_network.content_distribution 	client-8 	21
scalar tree_4_3_u02_r10_network.content_distribution 	client-9 	22
scalar tree_4_3_u02_r10_network.content_distribution 	client-10 	23
scalar tree_4_3_u02_r10_network.content_distribution 	client-11 	24
scalar tree_4_3_u02_r10_network.content_distribution 	client-12 	25
scalar tree_4_3_u02_r10_network.content_distribution 	client-13 	26
scalar tree_4_3_u02_r10_network.content_distribution 	client-14 	27
scalar tree_4_3_u02_r10_network.content_distribution 	client-15 	28
scalar tree_4_3_u02_r10_network.content_distribution 	client-16 	29
scalar tree_4_3_u02_r10_network.content_distribution 	client-17 	30
scalar tree_4_3_u02_r10_network.content_distribution 	client-18 	31
scalar tree_4_3_u02_r10_network.content_distribution 	client-19 	32
scalar tree_4_3_u02_r10_network.content_distribution 	client-20 	33
scalar tree_4_3_u02_r10_network.content_distribution 	client-21 	34
scalar tree_4_3_u02_r10_network.content_distribution 	client-22 	35
scalar tree_4_3_u02_r10_network.content_distribution 	client-23 	36
scalar tree_4_3_u02_r10_network.content_distribution 	client-24 	37
scalar tree_4_3_u02_r10_network.content_distribution 	client-25 	38
scalar tree_4_3_u02_r10_network.content_distribution 	client-26 	39
scalar tree_4_3_u02_r10_network.content_distribution 	repo-0_card 	100000
scalar tree_4_3_u02_r10_network.content_distribution 	repo-0_price 	0
scalar tree_4_3_u02_r10_network.statistics 	stabilization_time 	878.8
scalar tree_4_3_u02_r10_network.statistics 	p_hit 	0.22728960383887
scalar tree_4_3_u02_r10_network.statistics 	interests 	24906.575
scalar tree_4_3_u02_r10_network.statistics 	data 	16830.25
scalar tree_4_3_u02_r10_network.statistics 	hdistance 	2.6621043780578
scalar tree_4_3_u02_r10_network.statistics 	avg_time 	0.004167714804
scalar tree_4_3_u02_r10_network.statistics 	downloads 	323054
scalar tree_4_3_u02_r10_network.statistics 	total_cost 	0
scalar tree_4_3_u02_r10_network.statistics 	total_replicas 	100000
scalar tree_4_3_u02_r10_network.statistics 	inner_hit 	0.42176230599219
scalar tree_4_3_u02_r10_network.node[0].core_layer 	interests[0] 	189735
scalar tree_4_3_u02_r10_network.node[0].core_layer 	repo_load[0] 	186802
scalar tree_4_3_u02_r10_network.node[0].core_layer 	data[0] 	0
scalar tree_4_3_u02_r10_network.node[0].core_layer 	repo_int[0] 	186802
scalar tree_4_3_u02_r10_network.node[0].content_store 	p_hit[0] 	0.015458402508762
scalar tree_4_3_u02_r10_network.node[0].content_store 	hits[0] 	2933
scalar tree_4_3_u02_r10_network.node[0].content_store 	misses[0] 	186802
scalar tree_4_3_u02_r10_network.node[0].content_store 	decision_yes[0] 	855
scalar tree_4_3_u02_r10_network.node[0].content_store 	decision_no[0] 	185947
scalar tree_4_3_u02_r10_network.node[0].content_store 	decision_ratio[0] 	0.0045770387897346
scalar tree_4_3_u02_r10_network.node[1].core_layer 	interests[1] 	92316
scalar tree_4_3_u02_r10_network.node[1].core_layer 	data[1] 	89787
scalar tree_4_3_u02_r10_network.node[1].content_store 	p_hit[1] 	0.027373369730058
scalar tree_4_3_u02_r10_network.node[1].content_store 	hits[1] 	2527
scalar tree_4_3_u02_r10_network.node[1].content_store 	misses[1] 	89789
scalar tree_4_3_u02_r10_network.node[1].content_store 	decision_yes[1] 	507
scalar tree_4_3_u02_r10_network.node[1].content_store 	decision_no[1] 	89280
scalar tree_4_3_u02_r10_network.node[1].content_store 	decision_ratio[1] 	0.0056466971833339
scalar tree_4_3_u02_r10_network.node[2].core_layer 	interests[2] 	69757
scalar tree_4_3_u02_r10_network.node[2].core_layer 	data[2] 	67443
scalar tree_4_3_u02_r10_network.node[2].content_store 	p_hit[2] 	0.033186633599495
scalar tree_4_3_u02_r10_network.node[2].content_store 	hits[2] 	2315
scalar tree_4_3_u02_r10_network.node[2].content_store 	misses[2] 	67442
scalar tree_4_3_u02_r10_network.node[2].content_store 	decision_yes[2] 	417
scalar tree_4_3_u02_r10_network.node[2].content_store 	decision_no[2] 	67026
scalar tree_4_3_u02_r10_network.node[2].content_store 	decision_ratio[2] 	0.0061829989769138
scalar tree_4_3_u02_r10_network.node[3].core_layer 	interests[3] 	52389
scalar tree_4_3_u02_r10_network.node[3].core_layer 	data[3] 	49275
scalar tree_4_3_u02_r10_network.node[3].content_store 	p_hit[3] 	0.059401782817004
scalar tree_4_3_u02_r10_network.node[3].content_store 	hits[3] 	3112
scalar tree_4_3_u02_r10_network.node[3].content_store 	misses[3] 	49277
scalar tree_4_3_u02_r10_network.node[3].content_store 	decision_yes[3] 	442
scalar tree_4_3_u02_r10_network.node[3].content_store 	decision_no[3] 	48833
scalar tree_4_3_u02_r10_network.node[3].content_store 	decision_ratio[3] 	0.0089700659563673
scalar tree_4_3_u02_r10_network.node[4].core_layer 	interests[4] 	27482
scalar tree_4_3_u02_r10_network.node[4].core_layer 	data[4] 	25463
scalar tree_4_3_u02_r10_network.node[4].content_store 	p_hit[4] 	0.073393493923295
scalar tree_4_3_u02_r10_network.node[4].content_store 	hits[4] 	2017
scalar tree_4_3_u02_r10_network.node[4].content_store 	misses[4] 	25465
scalar tree_4_3_u02_r10_network.node[4].content_store 	decision_yes[4] 	273
scalar tree_4_3_u02_r10_network.node[4].content_store 	decision_no[4] 	25190
scalar tree_4_3_u02_r10_network.node[4].content_store 	decision_ratio[4] 	0.010721438950634
scalar tree_4_3_u02_r10_network.node[5].core_layer 	interests[5] 	29080
scalar tree_4_3_u02_r10_network.node[5].core_layer 	data[5] 	25711
scalar tree_4_3_u02_r10_network.node[5].content_store 	p_hit[5] 	0.11588720770289
scalar tree_4_3_u02_r10_network.node[5].content_store 	hits[5] 	3370
scalar tree_4_3_u02_r10_network.node[5].content_store 	misses[5] 	25710
scalar tree_4_3_u02_r10_network.node[5].content_store 	decision_yes[5] 	343
scalar tree_4_3_u02_r10_network.node[5].content_store 	decision_no[5] 	25368
scalar tree_4_3_u02_r10_network.node[5].content_store 	decision_ratio[5] 	0.013340593520283
scalar tree_4_3_u02_r10_network.node[6].core_layer 	interests[6] 	27727
scalar tree_4_3_u02_r10_network.node[6].core_layer 	data[6] 	25489
scalar tree_4_3_u02_r10_network.node[6].content_store 	p_hit[6] 	0.080715548021784
scalar tree_4_3_u02_r10_network.node[6].content_store 	hits[6] 	2238
scalar tree_4_3_u02_r10_network.node[6].content_store 	misses[6] 	25489
scalar tree_4_3_u02_r10_network.node[6].content_store 	decision_yes[6] 	269
scalar tree_4_3_u02_r10_network.node[6].content_store 	decision_no[6] 	25220
scalar tree_4_3_u02_r10_network.node[6].content_store 	decision_ratio[6] 	0.010553572129154
scalar tree_4_3_u02_r10_network.node[7].core_layer 	interests[7] 	26125
scalar tree_4_3_u02_r10_network.node[7].core_layer 	data[7] 	24365
scalar tree_4_3_u02_r10_network.node[7].content_store 	p_hit[7] 	0.067368421052632
scalar tree_4_3_u02_r10_network.node[7].content_store 	hits[7] 	1760
scalar tree_4_3_u02_r10_network.node[7].content_store 	misses[7] 	24365
scalar tree_4_3_u02_r10_network.node[7].content_store 	decision_yes[7] 	230
scalar tree_4_3_u02_r10_network.node[7].content_store 	decision_no[7] 	24135
scalar tree_4_3_u02_r10_network.node[7].content_store 	decision_ratio[7] 	0.0094397701621178
scalar tree_4_3_u02_r10_network.node[8].core_layer 	interests[8] 	25983
scalar tree_4_3_u02_r10_network.node[8].core_layer 	data[8] 	24108
scalar tree_4_3_u02_r10_network.node[8].content_store 	p_hit[8] 	0.072162567832814
scalar tree_4_3_u02_r10_network.node[8].content_store 	hits[8] 	1875
scalar tree_4_3_u02_r10_network.node[8].content_store 	misses[8] 	24108
scalar tree_4_3_u02_r10_network.node[8].content_store 	decision_yes[8] 	192
scalar tree_4_3_u02_r10_network.node[8].content_store 	decision_no[8] 	23916
scalar tree_4_3_u02_r10_network.node[8].content_store 	decision_ratio[8] 	0.0079641612742658
scalar tree_4_3_u02_r10_network.node[9].core_layer 	interests[9] 	31892
scalar tree_4_3_u02_r10_network.node[9].core_layer 	data[9] 	27854
scalar tree_4_3_u02_r10_network.node[9].content_store 	p_hit[9] 	0.12661482503449
scalar tree_4_3_u02_r10_network.node[9].content_store 	hits[9] 	4038
scalar tree_4_3_u02_r10_network.node[9].content_store 	misses[9] 	27854
scalar tree_4_3_u02_r10_network.node[9].content_store 	decision_yes[9] 	487
scalar tree_4_3_u02_r10_network.node[9].content_store 	decision_no[9] 	27367
scalar tree_4_3_u02_r10_network.node[9].content_store 	decision_ratio[9] 	0.017484023838587
scalar tree_4_3_u02_r10_network.node[10].core_layer 	interests[10] 	29438
scalar tree_4_3_u02_r10_network.node[10].core_layer 	data[10] 	25974
scalar tree_4_3_u02_r10_network.node[10].content_store 	p_hit[10] 	0.11767103743461
scalar tree_4_3_u02_r10_network.node[10].content_store 	hits[10] 	3464
scalar tree_4_3_u02_r10_network.node[10].content_store 	misses[10] 	25974
scalar tree_4_3_u02_r10_network.node[10].content_store 	decision_yes[10] 	332
scalar tree_4_3_u02_r10_network.node[10].content_store 	decision_no[10] 	25642
scalar tree_4_3_u02_r10_network.node[10].content_store 	decision_ratio[10] 	0.012782012782013
scalar tree_4_3_u02_r10_network.node[11].core_layer 	interests[11] 	27875
scalar tree_4_3_u02_r10_network.node[11].core_layer 	data[11] 	25703
scalar tree_4_3_u02_r10_network.node[11].content_store 	p_hit[11] 	0.077919282511211
scalar tree_4_3_u02_r10_network.node[11].content_store 	hits[11] 	2172
scalar tree_4_3_u02_r10_network.node[11].content_store 	misses[11] 	25703
scalar tree_4_3_u02_r10_network.node[11].content_store 	decision_yes[11] 	288
scalar tree_4_3_u02_r10_network.node[11].content_store 	decision_no[11] 	25415
scalar tree_4_3_u02_r10_network.node[11].content_store 	decision_ratio[11] 	0.011204917713886
scalar tree_4_3_u02_r10_network.node[12].core_layer 	interests[12] 	27671
scalar tree_4_3_u02_r10_network.node[12].core_layer 	data[12] 	25533
scalar tree_4_3_u02_r10_network.node[12].content_store 	p_hit[12] 	0.077228867767699
scalar tree_4_3_u02_r10_network.node[12].content_store 	hits[12] 	2137
scalar tree_4_3_u02_r10_network.node[12].content_store 	misses[12] 	25534
scalar tree_4_3_u02_r10_network.node[12].content_store 	decision_yes[12] 	262
scalar tree_4_3_u02_r10_network.node[12].content_store 	decision_no[12] 	25271
scalar tree_4_3_u02_r10_network.node[12].content_store 	decision_ratio[12] 	0.010261230564368
scalar tree_4_3_u02_r10_network.node[13].core_layer 	interests[13] 	12404
scalar tree_4_3_u02_r10_network.node[13].core_layer 	data[13] 	8684
scalar tree_4_3_u02_r10_network.node[13].content_store 	p_hit[13] 	0.29990325701387
scalar tree_4_3_u02_r10_network.node[13].content_store 	hits[13] 	3720
scalar tree_4_3_u02_r10_network.node[13].content_store 	misses[13] 	8684
scalar tree_4_3_u02_r10_network.node[13].content_store 	decision_yes[13] 	104
scalar tree_4_3_u02_r10_network.node[13].content_store 	decision_no[13] 	8580
scalar tree_4_3_u02_r10_network.node[13].content_store 	decision_ratio[13] 	0.011976047904192
scalar tree_4_3_u02_r10_network.node[14].core_layer 	interests[14] 	12422
scalar tree_4_3_u02_r10_network.node[14].core_layer 	data[14] 	8750
scalar tree_4_3_u02_r10_network.node[14].content_store 	p_hit[14] 	0.2956045725326
scalar tree_4_3_u02_r10_network.node[14].content_store 	hits[14] 	3672
scalar tree_4_3_u02_r10_network.node[14].content_store 	misses[14] 	8750
scalar tree_4_3_u02_r10_network.node[14].content_store 	decision_yes[14] 	97
scalar tree_4_3_u02_r10_network.node[14].content_store 	decision_no[14] 	8653
scalar tree_4_3_u02_r10_network.node[14].content_store 	decision_ratio[14] 	0.011085714285714
scalar tree_4_3_u02_r10_network.node[15].core_layer 	interests[15] 	12525
scalar tree_4_3_u02_r10_network.node[15].core_layer 	data[15] 	8841
scalar tree_4_3_u02_r10_network.node[15].content_store 	p_hit[15] 	0.29413173652695
scalar tree_4_3_u02_r10_network.node[15].content_store 	hits[15] 	3684
scalar tree_4_3_u02_r10_network.node[15].content_store 	misses[15] 	8841
scalar tree_4_3_u02_r10_network.node[15].content_store 	decision_yes[15] 	108
scalar tree_4_3_u02_r10_network.node[15].content_store 	decision_no[15] 	8733
scalar tree_4_3_u02_r10_network.node[15].content_store 	decision_ratio[15] 	0.012215812690872
scalar tree_4_3_u02_r10_network.node[16].core_layer 	interests[16] 	12253
scalar tree_4_3_u02_r10_network.node[16].core_layer 	data[16] 	8538
scalar tree_4_3_u02_r10_network.node[16].content_store 	p_hit[16] 	0.30319105525178
scalar tree_4_3_u02_r10_network.node[16].content_store 	hits[16] 	3715
scalar tree_4_3_u02_r10_network.node[16].content_store 	misses[16] 	8538
scalar tree_4_3_u02_r10_network.node[16].content_store 	decision_yes[16] 	110
scalar tree_4_3_u02_r10_network.node[16].content_store 	decision_no[16] 	8428
scalar tree_4_3_u02_r10_network.node[16].content_store 	decision_ratio[16] 	0.012883579292574
scalar tree_4_3_u02_r10_network.node[17].core_layer 	interests[17] 	12632
scalar tree_4_3_u02_r10_network.node[17].core_layer 	data[17] 	8790
scalar tree_4_3_u02_r10_network.node[17].content_store 	p_hit[17] 	0.30414819506016
scalar tree_4_3_u02_r10_network.node[17].content_store 	hits[17] 	3842
scalar tree_4_3_u02_r10_network.node[17].content_store 	misses[17] 	8790
scalar tree_4_3_u02_r10_network.node[17].content_store 	decision_yes[17] 	98
scalar tree_4_3_u02_r10_network.node[17].content_store 	decision_no[17] 	8692
scalar tree_4_3_u02_r10_network.node[17].content_store 	decision_ratio[17] 	0.011149032992036
scalar tree_4_3_u02_r10_network.node[18].core_layer 	interests[18] 	12692
scalar tree_4_3_u02_r10_network.node[18].core_layer 	data[18] 	8815
scalar tree_4_3_u02_r10_network.node[18].content_store 	p_hit[18] 	0.30554680113457
scalar tree_4_3_u02_r10_network.node[18].content_store 	hits[18] 	3878
scalar tree_4_3_u02_r10_network.node[18].content_store 	misses[18] 	8814
scalar tree_4_3_u02_r10_network.node[18].content_store 	decision_yes[18] 	108
scalar tree_4_3_u02_r10_network.node[18].content_store 	decision_no[18] 	8707
scalar tree_4_3_u02_r10_network.node[18].content_store 	decision_ratio[18] 	0.012251843448667
scalar tree_4_3_u02_r10_network.node[19].core_layer 	interests[19] 	12485
scalar tree_4_3_u02_r10_network.node[19].core_layer 	data[19] 	8745
scalar tree_4_3_u02_r10_network.node[19].content_store 	p_hit[19] 	0.2994793752503
scalar tree_4_3_u02_r10_network.node[19].content_store 	hits[19] 	3739
scalar tree_4_3_u02_r10_network.node[19].content_store 	misses[19] 	8746
scalar tree_4_3_u02_r10_network.node[19].content_store 	decision_yes[19] 	128
scalar tree_4_3_u02_r10_network.node[19].content_store 	decision_no[19] 	8617
scalar tree_4_3_u02_r10_network.node[19].content_store 	decision_ratio[19] 	0.014636935391652
scalar tree_4_3_u02_r10_network.node[20].core_layer 	interests[20] 	12584
scalar tree_4_3_u02_r10_network.node[20].core_layer 	data[20] 	8822
scalar tree_4_3_u02_r10_network.node[20].content_store 	p_hit[20] 	0.29895104895105
scalar tree_4_3_u02_r10_network.node[20].content_store 	hits[20] 	3762
scalar tree_4_3_u02_r10_network.node[20].content_store 	misses[20] 	8822
scalar tree_4_3_u02_r10_network.node[20].content_store 	decision_yes[20] 	117
scalar tree_4_3_u02_r10_network.node[20].content_store 	decision_no[20] 	8705
scalar tree_4_3_u02_r10_network.node[20].content_store 	decision_ratio[20] 	0.013262298798458
scalar tree_4_3_u02_r10_network.node[21].core_layer 	interests[21] 	12523
scalar tree_4_3_u02_r10_network.node[21].core_layer 	data[21] 	8829
scalar tree_4_3_u02_r10_network.node[21].content_store 	p_hit[21] 	0.29497724187495
scalar tree_4_3_u02_r10_network.node[21].content_store 	hits[21] 	3694
scalar tree_4_3_u02_r10_network.node[21].content_store 	misses[21] 	8829
scalar tree_4_3_u02_r10_network.node[21].content_store 	decision_yes[21] 	107
scalar tree_4_3_u02_r10_network.node[21].content_store 	decision_no[21] 	8722
scalar tree_4_3_u02_r10_network.node[21].content_store 	decision_ratio[21] 	0.012119152791936
scalar tree_4_3_u02_r10_network.node[22].core_layer 	interests[22] 	12308
scalar tree_4_3_u02_r10_network.node[22].core_layer 	data[22] 	8758
scalar tree_4_3_u02_r10_network.node[22].content_store 	p_hit[22] 	0.28843028924277
scalar tree_4_3_u02_r10_network.node[22].content_store 	hits[22] 	3550
scalar tree_4_3_u02_r10_network.node[22].content_store 	misses[22] 	8758
scalar tree_4_3_u02_r10_network.node[22].content_store 	decision_yes[22] 	107
scalar tree_4_3_u02_r10_network.node[22].content_store 	decision_no[22] 	8651
scalar tree_4_3_u02_r10_network.node[22].content_store 	decision_ratio[22] 	0.012217401233158
scalar tree_4_3_u02_r10_network.node[23].core_layer 	interests[23] 	12304
scalar tree_4_3_u02_r10_network.node[23].core_layer 	data[23] 	8718
scalar tree_4_3_u02_r10_network.node[23].content_store 	p_hit[23] 	0.29144993498049
scalar tree_4_3_u02_r10_network.node[23].content_store 	hits[23] 	3586
scalar tree_4_3_u02_r10_network.node[23].content_store 	misses[23] 	8718
scalar tree_4_3_u02_r10_network.node[23].content_store 	decision_yes[23] 	107
scalar tree_4_3_u02_r10_network.node[23].content_store 	decision_no[23] 	8611
scalar tree_4_3_u02_r10_network.node[23].content_store 	decision_ratio[23] 	0.012273457214958
scalar tree_4_3_u02_r10_network.node[24].core_layer 	interests[24] 	13196
scalar tree_4_3_u02_r10_network.node[24].core_layer 	data[24] 	8790
scalar tree_4_3_u02_r10_network.node[24].content_store 	p_hit[24] 	0.33388905729009
scalar tree_4_3_u02_r10_network.node[24].content_store 	hits[24] 	4406
scalar tree_4_3_u02_r10_network.node[24].content_store 	misses[24] 	8790
scalar tree_4_3_u02_r10_network.node[24].content_store 	decision_yes[24] 	126
scalar tree_4_3_u02_r10_network.node[24].content_store 	decision_no[24] 	8664
scalar tree_4_3_u02_r10_network.node[24].content_store 	decision_ratio[24] 	0.014334470989761
scalar tree_4_3_u02_r10_network.node[25].core_layer 	interests[25] 	12109
scalar tree_4_3_u02_r10_network.node[25].core_layer 	data[25] 	8594
scalar tree_4_3_u02_r10_network.node[25].content_store 	p_hit[25] 	0.29027995705673
scalar tree_4_3_u02_r10_network.node[25].content_store 	hits[25] 	3515
scalar tree_4_3_u02_r10_network.node[25].content_store 	misses[25] 	8594
scalar tree_4_3_u02_r10_network.node[25].content_store 	decision_yes[25] 	100
scalar tree_4_3_u02_r10_network.node[25].content_store 	decision_no[25] 	8494
scalar tree_4_3_u02_r10_network.node[25].content_store 	decision_ratio[25] 	0.011636025133814
scalar tree_4_3_u02_r10_network.node[26].core_layer 	interests[26] 	12231
scalar tree_4_3_u02_r10_network.node[26].core_layer 	data[26] 	8784
scalar tree_4_3_u02_r10_network.node[26].content_store 	p_hit[26] 	0.28182487122884
scalar tree_4_3_u02_r10_network.node[26].content_store 	hits[26] 	3447
scalar tree_4_3_u02_r10_network.node[26].content_store 	misses[26] 	8784
scalar tree_4_3_u02_r10_network.node[26].content_store 	decision_yes[26] 	94
scalar tree_4_3_u02_r10_network.node[26].content_store 	decision_no[26] 	8690
scalar tree_4_3_u02_r10_network.node[26].content_store 	decision_ratio[26] 	0.010701275045537
scalar tree_4_3_u02_r10_network.node[27].core_layer 	interests[27] 	12988
scalar tree_4_3_u02_r10_network.node[27].core_layer 	data[27] 	8634
scalar tree_4_3_u02_r10_network.node[27].content_store 	p_hit[27] 	0.3352325223283
scalar tree_4_3_u02_r10_network.node[27].content_store 	hits[27] 	4354
scalar tree_4_3_u02_r10_network.node[27].content_store 	misses[27] 	8634
scalar tree_4_3_u02_r10_network.node[27].content_store 	decision_yes[27] 	104
scalar tree_4_3_u02_r10_network.node[27].content_store 	decision_no[27] 	8530
scalar tree_4_3_u02_r10_network.node[27].content_store 	decision_ratio[27] 	0.012045401899467
scalar tree_4_3_u02_r10_network.node[28].core_layer 	interests[28] 	12648
scalar tree_4_3_u02_r10_network.node[28].core_layer 	data[28] 	8693
scalar tree_4_3_u02_r10_network.node[28].content_store 	p_hit[28] 	0.31269765970904
scalar tree_4_3_u02_r10_network.node[28].content_store 	hits[28] 	3955
scalar tree_4_3_u02_r10_network.node[28].content_store 	misses[28] 	8693
scalar tree_4_3_u02_r10_network.node[28].content_store 	decision_yes[28] 	87
scalar tree_4_3_u02_r10_network.node[28].content_store 	decision_no[28] 	8606
scalar tree_4_3_u02_r10_network.node[28].content_store 	decision_ratio[28] 	0.010008052455999
scalar tree_4_3_u02_r10_network.node[29].core_layer 	interests[29] 	12508
scalar tree_4_3_u02_r10_network.node[29].core_layer 	data[29] 	8769
scalar tree_4_3_u02_r10_network.node[29].content_store 	p_hit[29] 	0.29892868564119
scalar tree_4_3_u02_r10_network.node[29].content_store 	hits[29] 	3739
scalar tree_4_3_u02_r10_network.node[29].content_store 	misses[29] 	8769
scalar tree_4_3_u02_r10_network.node[29].content_store 	decision_yes[29] 	112
scalar tree_4_3_u02_r10_network.node[29].content_store 	decision_no[29] 	8657
scalar tree_4_3_u02_r10_network.node[29].content_store 	decision_ratio[29] 	0.012772265936823
scalar tree_4_3_u02_r10_network.node[30].core_layer 	interests[30] 	12746
scalar tree_4_3_u02_r10_network.node[30].core_layer 	data[30] 	8856
scalar tree_4_3_u02_r10_network.node[30].content_store 	p_hit[30] 	0.3051153302997
scalar tree_4_3_u02_r10_network.node[30].content_store 	hits[30] 	3889
scalar tree_4_3_u02_r10_network.node[30].content_store 	misses[30] 	8857
scalar tree_4_3_u02_r10_network.node[30].content_store 	decision_yes[30] 	133
scalar tree_4_3_u02_r10_network.node[30].content_store 	decision_no[30] 	8723
scalar tree_4_3_u02_r10_network.node[30].content_store 	decision_ratio[30] 	0.015018066847335
scalar tree_4_3_u02_r10_network.node[31].core_layer 	interests[31] 	12453
scalar tree_4_3_u02_r10_network.node[31].core_layer 	data[31] 	8587
scalar tree_4_3_u02_r10_network.node[31].content_store 	p_hit[31] 	0.31044728177949
scalar tree_4_3_u02_r10_network.node[31].content_store 	hits[31] 	3866
scalar tree_4_3_u02_r10_network.node[31].content_store 	misses[31] 	8587
scalar tree_4_3_u02_r10_network.node[31].content_store 	decision_yes[31] 	119
scalar tree_4_3_u02_r10_network.node[31].content_store 	decision_no[31] 	8468
scalar tree_4_3_u02_r10_network.node[31].content_store 	decision_ratio[31] 	0.013858157680214
scalar tree_4_3_u02_r10_network.node[32].core_layer 	interests[32] 	12560
scalar tree_4_3_u02_r10_network.node[32].core_layer 	data[32] 	8740
scalar tree_4_3_u02_r10_network.node[32].content_store 	p_hit[32] 	0.30414012738854
scalar tree_4_3_u02_r10_network.node[32].content_store 	hits[32] 	3820
scalar tree_4_3_u02_r10_network.node[32].content_store 	misses[32] 	8740
scalar tree_4_3_u02_r10_network.node[32].content_store 	decision_yes[32] 	109
scalar tree_4_3_u02_r10_network.node[32].content_store 	decision_no[32] 	8631
scalar tree_4_3_u02_r10_network.node[32].content_store 	decision_ratio[32] 	0.012471395881007
scalar tree_4_3_u02_r10_network.node[33].core_layer 	interests[33] 	12768
scalar tree_4_3_u02_r10_network.node[33].core_layer 	data[33] 	8855
scalar tree_4_3_u02_r10_network.node[33].content_store 	p_hit[33] 	0.30646929824561
scalar tree_4_3_u02_r10_network.node[33].content_store 	hits[33] 	3913
scalar tree_4_3_u02_r10_network.node[33].content_store 	misses[33] 	8855
scalar tree_4_3_u02_r10_network.node[33].content_store 	decision_yes[33] 	106
scalar tree_4_3_u02_r10_network.node[33].content_store 	decision_no[33] 	8749
scalar tree_4_3_u02_r10_network.node[33].content_store 	decision_ratio[33] 	0.011970638057595
scalar tree_4_3_u02_r10_network.node[34].core_layer 	interests[34] 	12762
scalar tree_4_3_u02_r10_network.node[34].core_layer 	data[34] 	8951
scalar tree_4_3_u02_r10_network.node[34].content_store 	p_hit[34] 	0.29862090581414
scalar tree_4_3_u02_r10_network.node[34].content_store 	hits[34] 	3811
scalar tree_4_3_u02_r10_network.node[34].content_store 	misses[34] 	8951
scalar tree_4_3_u02_r10_network.node[34].content_store 	decision_yes[34] 	126
scalar tree_4_3_u02_r10_network.node[34].content_store 	decision_no[34] 	8825
scalar tree_4_3_u02_r10_network.node[34].content_store 	decision_ratio[34] 	0.014076639481622
scalar tree_4_3_u02_r10_network.node[35].core_layer 	interests[35] 	12579
scalar tree_4_3_u02_r10_network.node[35].core_layer 	data[35] 	8838
scalar tree_4_3_u02_r10_network.node[35].content_store 	p_hit[35] 	0.29732093171158
scalar tree_4_3_u02_r10_network.node[35].content_store 	hits[35] 	3740
scalar tree_4_3_u02_r10_network.node[35].content_store 	misses[35] 	8839
scalar tree_4_3_u02_r10_network.node[35].content_store 	decision_yes[35] 	115
scalar tree_4_3_u02_r10_network.node[35].content_store 	decision_no[35] 	8723
scalar tree_4_3_u02_r10_network.node[35].content_store 	decision_ratio[35] 	0.013011993663725
scalar tree_4_3_u02_r10_network.node[36].core_layer 	interests[36] 	12475
scalar tree_4_3_u02_r10_network.node[36].core_layer 	data[36] 	8804
scalar tree_4_3_u02_r10_network.node[36].content_store 	p_hit[36] 	0.29426853707415
scalar tree_4_3_u02_r10_network.node[36].content_store 	hits[36] 	3671
scalar tree_4_3_u02_r10_network.node[36].content_store 	misses[36] 	8804
scalar tree_4_3_u02_r10_network.node[36].content_store 	decision_yes[36] 	106
scalar tree_4_3_u02_r10_network.node[36].content_store 	decision_no[36] 	8698
scalar tree_4_3_u02_r10_network.node[36].content_store 	decision_ratio[36] 	0.012039981826443
scalar tree_4_3_u02_r10_network.node[37].core_layer 	interests[37] 	12675
scalar tree_4_3_u02_r10_network.node[37].core_layer 	data[37] 	8899
scalar tree_4_3_u02_r10_network.node[37].content_store 	p_hit[37] 	0.29790927021696
scalar tree_4_3_u02_r10_network.node[37].content_store 	hits[37] 	3776
scalar tree_4_3_u02_r10_network.node[37].content_store 	misses[37] 	8899
scalar tree_4_3_u02_r10_network.node[37].content_store 	decision_yes[37] 	93
scalar tree_4_3_u02_r10_network.node[37].content_store 	decision_no[37] 	8806
scalar tree_4_3_u02_r10_network.node[37].content_store 	decision_ratio[37] 	0.010450612428363
scalar tree_4_3_u02_r10_network.node[38].core_layer 	interests[38] 	12493
scalar tree_4_3_u02_r10_network.node[38].core_layer 	data[38] 	8654
scalar tree_4_3_u02_r10_network.node[38].content_store 	p_hit[38] 	0.3072920835668
scalar tree_4_3_u02_r10_network.node[38].content_store 	hits[38] 	3839
scalar tree_4_3_u02_r10_network.node[38].content_store 	misses[38] 	8654
scalar tree_4_3_u02_r10_network.node[38].content_store 	decision_yes[38] 	108
scalar tree_4_3_u02_r10_network.node[38].content_store 	decision_no[38] 	8546
scalar tree_4_3_u02_r10_network.node[38].content_store 	decision_ratio[38] 	0.012479778137278
scalar tree_4_3_u02_r10_network.node[39].core_layer 	interests[39] 	12470
scalar tree_4_3_u02_r10_network.node[39].core_layer 	data[39] 	8767
scalar tree_4_3_u02_r10_network.node[39].content_store 	p_hit[39] 	0.29695268644747
scalar tree_4_3_u02_r10_network.node[39].content_store 	hits[39] 	3703
scalar tree_4_3_u02_r10_network.node[39].content_store 	misses[39] 	8767
scalar tree_4_3_u02_r10_network.node[39].content_store 	decision_yes[39] 	101
scalar tree_4_3_u02_r10_network.node[39].content_store 	decision_no[39] 	8666
scalar tree_4_3_u02_r10_network.node[39].content_store 	decision_ratio[39] 	0.011520474506673
scalar tree_4_3_u02_r10_network.client[13] 	hdistance[13] 	2.6664715229573
scalar tree_4_3_u02_r10_network.client[13] 	downloads[13] 	11957
scalar tree_4_3_u02_r10_network.client[13] 	avg_time[13] 	0.004157144124
scalar tree_4_3_u02_r10_network.client[14] 	hdistance[14] 	2.6911099949774
scalar tree_4_3_u02_r10_network.client[14] 	downloads[14] 	11946
scalar tree_4_3_u02_r10_network.client[14] 	avg_time[14] 	0.004195040661
scalar tree_4_3_u02_r10_network.client[15] 	hdistance[15] 	2.7109648391935
scalar tree_4_3_u02_r10_network.client[15] 	downloads[15] 	12002
scalar tree_4_3_u02_r10_network.client[15] 	avg_time[15] 	0.004219793718
scalar tree_4_3_u02_r10_network.client[16] 	hdistance[16] 	2.6455815548127
scalar tree_4_3_u02_r10_network.client[16] 	downloads[16] 	11667
scalar tree_4_3_u02_r10_network.client[16] 	avg_time[16] 	0.004165592366
scalar tree_4_3_u02_r10_network.client[17] 	hdistance[17] 	2.6404158004158
scalar tree_4_3_u02_r10_network.client[17] 	downloads[17] 	12025
scalar tree_4_3_u02_r10_network.client[17] 	avg_time[17] 	0.00415351052
scalar tree_4_3_u02_r10_network.client[18] 	hdistance[18] 	2.6425974884336
scalar tree_4_3_u02_r10_network.client[18] 	downloads[18] 	12104
scalar tree_4_3_u02_r10_network.client[18] 	avg_time[18] 	0.004155152283
scalar tree_4_3_u02_r10_network.client[19] 	hdistance[19] 	2.661323983638
scalar tree_4_3_u02_r10_network.client[19] 	downloads[19] 	11979
scalar tree_4_3_u02_r10_network.client[19] 	avg_time[19] 	0.004159275859
scalar tree_4_3_u02_r10_network.client[20] 	hdistance[20] 	2.6776114465305
scalar tree_4_3_u02_r10_network.client[20] 	downloads[20] 	12091
scalar tree_4_3_u02_r10_network.client[20] 	avg_time[20] 	0.004176326473
scalar tree_4_3_u02_r10_network.client[21] 	hdistance[21] 	2.6846666666667
scalar tree_4_3_u02_r10_network.client[21] 	downloads[21] 	12000
scalar tree_4_3_u02_r10_network.client[21] 	avg_time[21] 	0.004191619708
scalar tree_4_3_u02_r10_network.client[22] 	hdistance[22] 	2.6968428104849
scalar tree_4_3_u02_r10_network.client[22] 	downloads[22] 	11941
scalar tree_4_3_u02_r10_network.client[22] 	avg_time[22] 	0.004209359738
scalar tree_4_3_u02_r10_network.client[23] 	hdistance[23] 	2.6917607695525
scalar tree_4_3_u02_r10_network.client[23] 	downloads[23] 	11955
scalar tree_4_3_u02_r10_network.client[23] 	avg_time[23] 	0.004198073143
scalar tree_4_3_u02_r10_network.client[24] 	hdistance[24] 	2.6083816242546
scalar tree_4_3_u02_r10_network.client[24] 	downloads[24] 	11907
scalar tree_4_3_u02_r10_network.client[24] 	avg_time[24] 	0.004086836669
scalar tree_4_3_u02_r10_network.client[25] 	hdistance[25] 	2.690447913132
scalar tree_4_3_u02_r10_network.client[25] 	downloads[25] 	11788
scalar tree_4_3_u02_r10_network.client[25] 	avg_time[25] 	0.004195959059
scalar tree_4_3_u02_r10_network.client[26] 	hdistance[26] 	2.733198585144
scalar tree_4_3_u02_r10_network.client[26] 	downloads[26] 	11874
scalar tree_4_3_u02_r10_network.client[26] 	avg_time[26] 	0.00426258757
scalar tree_4_3_u02_r10_network.client[27] 	hdistance[27] 	2.5654862758387
scalar tree_4_3_u02_r10_network.client[27] 	downloads[27] 	11804
scalar tree_4_3_u02_r10_network.client[27] 	avg_time[27] 	0.004016262725
scalar tree_4_3_u02_r10_network.client[28] 	hdistance[28] 	2.6098258601834
scalar tree_4_3_u02_r10_network.client[28] 	downloads[28] 	11887
scalar tree_4_3_u02_r10_network.client[28] 	avg_time[28] 	0.004109023675
scalar tree_4_3_u02_r10_network.client[29] 	hdistance[29] 	2.6495445344129
scalar tree_4_3_u02_r10_network.client[29] 	downloads[29] 	11856
scalar tree_4_3_u02_r10_network.client[29] 	avg_time[29] 	0.004160928235
scalar tree_4_3_u02_r10_network.client[30] 	hdistance[30] 	2.6146385941645
scalar tree_4_3_u02_r10_network.client[30] 	downloads[30] 	12064
scalar tree_4_3_u02_r10_network.client[30] 	avg_time[30] 	0.00411185777
scalar tree_4_3_u02_r10_network.client[31] 	hdistance[31] 	2.6277118644068
scalar tree_4_3_u02_r10_network.client[31] 	downloads[31] 	11800
scalar tree_4_3_u02_r10_network.client[31] 	avg_time[31] 	0.004138641132
scalar tree_4_3_u02_r10_network.client[32] 	hdistance[32] 	2.658938172043
scalar tree_4_3_u02_r10_network.client[32] 	downloads[32] 	11904
scalar tree_4_3_u02_r10_network.client[32] 	avg_time[32] 	0.004177080337
scalar tree_4_3_u02_r10_network.client[33] 	hdistance[33] 	2.6530002489833
scalar tree_4_3_u02_r10_network.client[33] 	downloads[33] 	12049
scalar tree_4_3_u02_r10_network.client[33] 	avg_time[33] 	0.004186178497
scalar tree_4_3_u02_r10_network.client[34] 	hdistance[34] 	2.6710472614481
scalar tree_4_3_u02_r10_network.client[34] 	downloads[34] 	12251
scalar tree_4_3_u02_r10_network.client[34] 	avg_time[34] 	0.004172717536
scalar tree_4_3_u02_r10_network.client[35] 	hdistance[35] 	2.6821988226515
scalar tree_4_3_u02_r10_network.client[35] 	downloads[35] 	12061
scalar tree_4_3_u02_r10_network.client[35] 	avg_time[35] 	0.004196471507
scalar tree_4_3_u02_r10_network.client[36] 	hdistance[36] 	2.6896580623534
scalar tree_4_3_u02_r10_network.client[36] 	downloads[36] 	11932
scalar tree_4_3_u02_r10_network.client[36] 	avg_time[36] 	0.004211529053
scalar tree_4_3_u02_r10_network.client[37] 	hdistance[37] 	2.6774167144143
scalar tree_4_3_u02_r10_network.client[37] 	downloads[37] 	12217
scalar tree_4_3_u02_r10_network.client[37] 	avg_time[37] 	0.004185345358
scalar tree_4_3_u02_r10_network.client[38] 	hdistance[38] 	2.6527754625771
scalar tree_4_3_u02_r10_network.client[38] 	downloads[38] 	11998
scalar tree_4_3_u02_r10_network.client[38] 	avg_time[38] 	0.004144020985
scalar tree_4_3_u02_r10_network.client[39] 	hdistance[39] 	2.6832013338891
scalar tree_4_3_u02_r10_network.client[39] 	downloads[39] 	11995
scalar tree_4_3_u02_r10_network.client[39] 	avg_time[39] 	0.004191971024
