version 2
run General-138-20160831-22:31:35-8710
attr a 0.9
attr cd ffc
attr configname General
attr cr lru
attr datetime 20160831-22:31:35
attr experiment General
attr fsize 1
attr inifile hw5115/scenario_Y/omnetp.ini
attr iterationvars "$name=tree_4_3, $un=02, $rep=7, $cd=ffc, $cr=lru, $fsize=1, $a=0.9, $sl=nrr, $ttl=1000, $variance=0.05"
attr iterationvars2 "$name=tree_4_3, $un=02, $rep=7, $cd=ffc, $cr=lru, $fsize=1, $a=0.9, $sl=nrr, $ttl=1000, $variance=0.05, $repetition=0"
attr measurement "$name=tree_4_3, $un=02, $rep=7, $cd=ffc, $cr=lru, $fsize=1, $a=0.9, $sl=nrr, $ttl=1000, $variance=0.05"
attr name tree_4_3
attr network networks.${name}_u${un}_r${rep}_network
attr processid 8710
attr rep 7
attr repetition 0
attr replication #0
attr resultdir results
attr runnumber 138
attr seedset 7
attr sl nrr
attr ttl 1000
attr un 02
attr variance 0.05

scalar . 	a 	0.9
scalar . 	fsize 	1
scalar . 	rep 	7
scalar . 	ttl 	1000
scalar . 	un 	02
scalar . 	variance 	0.05
scalar tree_4_3_u02_r7_network.content_distribution 	repo-0 	0
scalar tree_4_3_u02_r7_network.content_distribution 	client-0 	13
scalar tree_4_3_u02_r7_network.content_distribution 	client-1 	14
scalar tree_4_3_u02_r7_network.content_distribution 	client-2 	15
scalar tree_4_3_u02_r7_network.content_distribution 	client-3 	16
scalar tree_4_3_u02_r7_network.content_distribution 	client-4 	17
scalar tree_4_3_u02_r7_network.content_distribution 	client-5 	18
scalar tree_4_3_u02_r7_network.content_distribution 	client-6 	19
scalar tree_4_3_u02_r7_network.content_distribution 	client-7 	20
scalar tree_4_3_u02_r7_network.content_distribution 	client-8 	21
scalar tree_4_3_u02_r7_network.content_distribution 	client-9 	22
scalar tree_4_3_u02_r7_network.content_distribution 	client-10 	23
scalar tree_4_3_u02_r7_network.content_distribution 	client-11 	24
scalar tree_4_3_u02_r7_network.content_distribution 	client-12 	25
scalar tree_4_3_u02_r7_network.content_distribution 	client-13 	26
scalar tree_4_3_u02_r7_network.content_distribution 	client-14 	27
scalar tree_4_3_u02_r7_network.content_distribution 	client-15 	28
scalar tree_4_3_u02_r7_network.content_distribution 	client-16 	29
scalar tree_4_3_u02_r7_network.content_distribution 	client-17 	30
scalar tree_4_3_u02_r7_network.content_distribution 	client-18 	31
scalar tree_4_3_u02_r7_network.content_distribution 	client-19 	32
scalar tree_4_3_u02_r7_network.content_distribution 	client-20 	33
scalar tree_4_3_u02_r7_network.content_distribution 	client-21 	34
scalar tree_4_3_u02_r7_network.content_distribution 	client-22 	35
scalar tree_4_3_u02_r7_network.content_distribution 	client-23 	36
scalar tree_4_3_u02_r7_network.content_distribution 	client-24 	37
scalar tree_4_3_u02_r7_network.content_distribution 	client-25 	38
scalar tree_4_3_u02_r7_network.content_distribution 	client-26 	39
scalar tree_4_3_u02_r7_network.content_distribution 	repo-0_card 	100000
scalar tree_4_3_u02_r7_network.content_distribution 	repo-0_price 	0
scalar tree_4_3_u02_r7_network.statistics 	stabilization_time 	1149.3
scalar tree_4_3_u02_r7_network.statistics 	p_hit 	0.22399014474152
scalar tree_4_3_u02_r7_network.statistics 	interests 	24820.05
scalar tree_4_3_u02_r7_network.statistics 	data 	16736.45
scalar tree_4_3_u02_r7_network.statistics 	hdistance 	2.668550703989
scalar tree_4_3_u02_r7_network.statistics 	avg_time 	0.004140732254
scalar tree_4_3_u02_r7_network.statistics 	downloads 	323343
scalar tree_4_3_u02_r7_network.statistics 	total_cost 	0
scalar tree_4_3_u02_r7_network.statistics 	total_replicas 	100000
scalar tree_4_3_u02_r7_network.statistics 	inner_hit 	0.40184881070566
scalar tree_4_3_u02_r7_network.node[0].core_layer 	interests[0] 	196476
scalar tree_4_3_u02_r7_network.node[0].core_layer 	repo_load[0] 	193408
scalar tree_4_3_u02_r7_network.node[0].core_layer 	data[0] 	0
scalar tree_4_3_u02_r7_network.node[0].core_layer 	repo_int[0] 	193408
scalar tree_4_3_u02_r7_network.node[0].content_store 	p_hit[0] 	0.015615138744681
scalar tree_4_3_u02_r7_network.node[0].content_store 	hits[0] 	3068
scalar tree_4_3_u02_r7_network.node[0].content_store 	misses[0] 	193408
scalar tree_4_3_u02_r7_network.node[0].content_store 	decision_yes[0] 	928
scalar tree_4_3_u02_r7_network.node[0].content_store 	decision_no[0] 	192480
scalar tree_4_3_u02_r7_network.node[0].content_store 	decision_ratio[0] 	0.0047981469225678
scalar tree_4_3_u02_r7_network.node[1].core_layer 	interests[1] 	70941
scalar tree_4_3_u02_r7_network.node[1].core_layer 	data[1] 	69006
scalar tree_4_3_u02_r7_network.node[1].content_store 	p_hit[1] 	0.027276187254197
scalar tree_4_3_u02_r7_network.node[1].content_store 	hits[1] 	1935
scalar tree_4_3_u02_r7_network.node[1].content_store 	misses[1] 	69006
scalar tree_4_3_u02_r7_network.node[1].content_store 	decision_yes[1] 	449
scalar tree_4_3_u02_r7_network.node[1].content_store 	decision_no[1] 	68557
scalar tree_4_3_u02_r7_network.node[1].content_store 	decision_ratio[1] 	0.0065066805785004
scalar tree_4_3_u02_r7_network.node[2].core_layer 	interests[2] 	70497
scalar tree_4_3_u02_r7_network.node[2].core_layer 	data[2] 	68865
scalar tree_4_3_u02_r7_network.node[2].content_store 	p_hit[2] 	0.023135736272465
scalar tree_4_3_u02_r7_network.node[2].content_store 	hits[2] 	1631
scalar tree_4_3_u02_r7_network.node[2].content_store 	misses[2] 	68866
scalar tree_4_3_u02_r7_network.node[2].content_store 	decision_yes[2] 	472
scalar tree_4_3_u02_r7_network.node[2].content_store 	decision_no[2] 	68393
scalar tree_4_3_u02_r7_network.node[2].content_store 	decision_ratio[2] 	0.0068539896899731
scalar tree_4_3_u02_r7_network.node[3].core_layer 	interests[3] 	70175
scalar tree_4_3_u02_r7_network.node[3].core_layer 	data[3] 	68464
scalar tree_4_3_u02_r7_network.node[3].content_store 	p_hit[3] 	0.024396152475953
scalar tree_4_3_u02_r7_network.node[3].content_store 	hits[3] 	1712
scalar tree_4_3_u02_r7_network.node[3].content_store 	misses[3] 	68463
scalar tree_4_3_u02_r7_network.node[3].content_store 	decision_yes[3] 	436
scalar tree_4_3_u02_r7_network.node[3].content_store 	decision_no[3] 	68028
scalar tree_4_3_u02_r7_network.node[3].content_store 	decision_ratio[3] 	0.0063683103528862
scalar tree_4_3_u02_r7_network.node[4].core_layer 	interests[4] 	27494
scalar tree_4_3_u02_r7_network.node[4].core_layer 	data[4] 	25572
scalar tree_4_3_u02_r7_network.node[4].content_store 	p_hit[4] 	0.069869789772314
scalar tree_4_3_u02_r7_network.node[4].content_store 	hits[4] 	1921
scalar tree_4_3_u02_r7_network.node[4].content_store 	misses[4] 	25573
scalar tree_4_3_u02_r7_network.node[4].content_store 	decision_yes[4] 	314
scalar tree_4_3_u02_r7_network.node[4].content_store 	decision_no[4] 	25258
scalar tree_4_3_u02_r7_network.node[4].content_store 	decision_ratio[4] 	0.012279055216643
scalar tree_4_3_u02_r7_network.node[5].core_layer 	interests[5] 	35318
scalar tree_4_3_u02_r7_network.node[5].core_layer 	data[5] 	33012
scalar tree_4_3_u02_r7_network.node[5].content_store 	p_hit[5] 	0.065349113766351
scalar tree_4_3_u02_r7_network.node[5].content_store 	hits[5] 	2308
scalar tree_4_3_u02_r7_network.node[5].content_store 	misses[5] 	33010
scalar tree_4_3_u02_r7_network.node[5].content_store 	decision_yes[5] 	331
scalar tree_4_3_u02_r7_network.node[5].content_store 	decision_no[5] 	32681
scalar tree_4_3_u02_r7_network.node[5].content_store 	decision_ratio[5] 	0.010026656973222
scalar tree_4_3_u02_r7_network.node[6].core_layer 	interests[6] 	19190
scalar tree_4_3_u02_r7_network.node[6].core_layer 	data[6] 	17110
scalar tree_4_3_u02_r7_network.node[6].content_store 	p_hit[6] 	0.10838978634706
scalar tree_4_3_u02_r7_network.node[6].content_store 	hits[6] 	2080
scalar tree_4_3_u02_r7_network.node[6].content_store 	misses[6] 	17110
scalar tree_4_3_u02_r7_network.node[6].content_store 	decision_yes[6] 	205
scalar tree_4_3_u02_r7_network.node[6].content_store 	decision_no[6] 	16905
scalar tree_4_3_u02_r7_network.node[6].content_store 	decision_ratio[6] 	0.01198129748685
scalar tree_4_3_u02_r7_network.node[7].core_layer 	interests[7] 	35341
scalar tree_4_3_u02_r7_network.node[7].core_layer 	data[7] 	32971
scalar tree_4_3_u02_r7_network.node[7].content_store 	p_hit[7] 	0.067032624996463
scalar tree_4_3_u02_r7_network.node[7].content_store 	hits[7] 	2369
scalar tree_4_3_u02_r7_network.node[7].content_store 	misses[7] 	32972
scalar tree_4_3_u02_r7_network.node[7].content_store 	decision_yes[7] 	332
scalar tree_4_3_u02_r7_network.node[7].content_store 	decision_no[7] 	32639
scalar tree_4_3_u02_r7_network.node[7].content_store 	decision_ratio[7] 	0.010069454975585
scalar tree_4_3_u02_r7_network.node[8].core_layer 	interests[8] 	27863
scalar tree_4_3_u02_r7_network.node[8].core_layer 	data[8] 	25564
scalar tree_4_3_u02_r7_network.node[8].content_store 	p_hit[8] 	0.08251085669167
scalar tree_4_3_u02_r7_network.node[8].content_store 	hits[8] 	2299
scalar tree_4_3_u02_r7_network.node[8].content_store 	misses[8] 	25564
scalar tree_4_3_u02_r7_network.node[8].content_store 	decision_yes[8] 	292
scalar tree_4_3_u02_r7_network.node[8].content_store 	decision_no[8] 	25272
scalar tree_4_3_u02_r7_network.node[8].content_store 	decision_ratio[8] 	0.011422312627132
scalar tree_4_3_u02_r7_network.node[9].core_layer 	interests[9] 	19095
scalar tree_4_3_u02_r7_network.node[9].core_layer 	data[9] 	17164
scalar tree_4_3_u02_r7_network.node[9].content_store 	p_hit[9] 	0.10112594920136
scalar tree_4_3_u02_r7_network.node[9].content_store 	hits[9] 	1931
scalar tree_4_3_u02_r7_network.node[9].content_store 	misses[9] 	17164
scalar tree_4_3_u02_r7_network.node[9].content_store 	decision_yes[9] 	195
scalar tree_4_3_u02_r7_network.node[9].content_store 	decision_no[9] 	16969
scalar tree_4_3_u02_r7_network.node[9].content_store 	decision_ratio[9] 	0.011360988114659
scalar tree_4_3_u02_r7_network.node[10].core_layer 	interests[10] 	26500
scalar tree_4_3_u02_r7_network.node[10].core_layer 	data[10] 	24650
scalar tree_4_3_u02_r7_network.node[10].content_store 	p_hit[10] 	0.069849056603774
scalar tree_4_3_u02_r7_network.node[10].content_store 	hits[10] 	1851
scalar tree_4_3_u02_r7_network.node[10].content_store 	misses[10] 	24649
scalar tree_4_3_u02_r7_network.node[10].content_store 	decision_yes[10] 	243
scalar tree_4_3_u02_r7_network.node[10].content_store 	decision_no[10] 	24407
scalar tree_4_3_u02_r7_network.node[10].content_store 	decision_ratio[10] 	0.0098580121703854
scalar tree_4_3_u02_r7_network.node[11].core_layer 	interests[11] 	27576
scalar tree_4_3_u02_r7_network.node[11].core_layer 	data[11] 	25098
scalar tree_4_3_u02_r7_network.node[11].content_store 	p_hit[11] 	0.089788221642008
scalar tree_4_3_u02_r7_network.node[11].content_store 	hits[11] 	2476
scalar tree_4_3_u02_r7_network.node[11].content_store 	misses[11] 	25100
scalar tree_4_3_u02_r7_network.node[11].content_store 	decision_yes[11] 	294
scalar tree_4_3_u02_r7_network.node[11].content_store 	decision_no[11] 	24804
scalar tree_4_3_u02_r7_network.node[11].content_store 	decision_ratio[11] 	0.011714080803251
scalar tree_4_3_u02_r7_network.node[12].core_layer 	interests[12] 	27926
scalar tree_4_3_u02_r7_network.node[12].core_layer 	data[12] 	25536
scalar tree_4_3_u02_r7_network.node[12].content_store 	p_hit[12] 	0.085583327365179
scalar tree_4_3_u02_r7_network.node[12].content_store 	hits[12] 	2390
scalar tree_4_3_u02_r7_network.node[12].content_store 	misses[12] 	25536
scalar tree_4_3_u02_r7_network.node[12].content_store 	decision_yes[12] 	305
scalar tree_4_3_u02_r7_network.node[12].content_store 	decision_no[12] 	25231
scalar tree_4_3_u02_r7_network.node[12].content_store 	decision_ratio[12] 	0.011943922305764
scalar tree_4_3_u02_r7_network.node[13].core_layer 	interests[13] 	12236
scalar tree_4_3_u02_r7_network.node[13].core_layer 	data[13] 	8646
scalar tree_4_3_u02_r7_network.node[13].content_store 	p_hit[13] 	0.2933965348153
scalar tree_4_3_u02_r7_network.node[13].content_store 	hits[13] 	3590
scalar tree_4_3_u02_r7_network.node[13].content_store 	misses[13] 	8646
scalar tree_4_3_u02_r7_network.node[13].content_store 	decision_yes[13] 	123
scalar tree_4_3_u02_r7_network.node[13].content_store 	decision_no[13] 	8523
scalar tree_4_3_u02_r7_network.node[13].content_store 	decision_ratio[13] 	0.014226231783484
scalar tree_4_3_u02_r7_network.node[14].core_layer 	interests[14] 	12565
scalar tree_4_3_u02_r7_network.node[14].core_layer 	data[14] 	8881
scalar tree_4_3_u02_r7_network.node[14].content_store 	p_hit[14] 	0.29311579785117
scalar tree_4_3_u02_r7_network.node[14].content_store 	hits[14] 	3683
scalar tree_4_3_u02_r7_network.node[14].content_store 	misses[14] 	8882
scalar tree_4_3_u02_r7_network.node[14].content_store 	decision_yes[14] 	117
scalar tree_4_3_u02_r7_network.node[14].content_store 	decision_no[14] 	8764
scalar tree_4_3_u02_r7_network.node[14].content_store 	decision_ratio[14] 	0.013174192095485
scalar tree_4_3_u02_r7_network.node[15].core_layer 	interests[15] 	12534
scalar tree_4_3_u02_r7_network.node[15].core_layer 	data[15] 	8833
scalar tree_4_3_u02_r7_network.node[15].content_store 	p_hit[15] 	0.29527684697622
scalar tree_4_3_u02_r7_network.node[15].content_store 	hits[15] 	3701
scalar tree_4_3_u02_r7_network.node[15].content_store 	misses[15] 	8833
scalar tree_4_3_u02_r7_network.node[15].content_store 	decision_yes[15] 	106
scalar tree_4_3_u02_r7_network.node[15].content_store 	decision_no[15] 	8727
scalar tree_4_3_u02_r7_network.node[15].content_store 	decision_ratio[15] 	0.012000452847277
scalar tree_4_3_u02_r7_network.node[16].core_layer 	interests[16] 	12128
scalar tree_4_3_u02_r7_network.node[16].core_layer 	data[16] 	8508
scalar tree_4_3_u02_r7_network.node[16].content_store 	p_hit[16] 	0.29856530343008
scalar tree_4_3_u02_r7_network.node[16].content_store 	hits[16] 	3621
scalar tree_4_3_u02_r7_network.node[16].content_store 	misses[16] 	8507
scalar tree_4_3_u02_r7_network.node[16].content_store 	decision_yes[16] 	132
scalar tree_4_3_u02_r7_network.node[16].content_store 	decision_no[16] 	8376
scalar tree_4_3_u02_r7_network.node[16].content_store 	decision_ratio[16] 	0.015514809590973
scalar tree_4_3_u02_r7_network.node[17].core_layer 	interests[17] 	12451
scalar tree_4_3_u02_r7_network.node[17].core_layer 	data[17] 	8646
scalar tree_4_3_u02_r7_network.node[17].content_store 	p_hit[17] 	0.3056782587744
scalar tree_4_3_u02_r7_network.node[17].content_store 	hits[17] 	3806
scalar tree_4_3_u02_r7_network.node[17].content_store 	misses[17] 	8645
scalar tree_4_3_u02_r7_network.node[17].content_store 	decision_yes[17] 	114
scalar tree_4_3_u02_r7_network.node[17].content_store 	decision_no[17] 	8532
scalar tree_4_3_u02_r7_network.node[17].content_store 	decision_ratio[17] 	0.013185287994448
scalar tree_4_3_u02_r7_network.node[18].core_layer 	interests[18] 	12502
scalar tree_4_3_u02_r7_network.node[18].core_layer 	data[18] 	8767
scalar tree_4_3_u02_r7_network.node[18].content_store 	p_hit[18] 	0.29875219964806
scalar tree_4_3_u02_r7_network.node[18].content_store 	hits[18] 	3735
scalar tree_4_3_u02_r7_network.node[18].content_store 	misses[18] 	8767
scalar tree_4_3_u02_r7_network.node[18].content_store 	decision_yes[18] 	95
scalar tree_4_3_u02_r7_network.node[18].content_store 	decision_no[18] 	8672
scalar tree_4_3_u02_r7_network.node[18].content_store 	decision_ratio[18] 	0.010836089882514
scalar tree_4_3_u02_r7_network.node[19].core_layer 	interests[19] 	12301
scalar tree_4_3_u02_r7_network.node[19].core_layer 	data[19] 	8702
scalar tree_4_3_u02_r7_network.node[19].content_store 	p_hit[19] 	0.29257783920007
scalar tree_4_3_u02_r7_network.node[19].content_store 	hits[19] 	3599
scalar tree_4_3_u02_r7_network.node[19].content_store 	misses[19] 	8702
scalar tree_4_3_u02_r7_network.node[19].content_store 	decision_yes[19] 	110
scalar tree_4_3_u02_r7_network.node[19].content_store 	decision_no[19] 	8592
scalar tree_4_3_u02_r7_network.node[19].content_store 	decision_ratio[19] 	0.012640772236268
scalar tree_4_3_u02_r7_network.node[20].core_layer 	interests[20] 	12953
scalar tree_4_3_u02_r7_network.node[20].core_layer 	data[20] 	8680
scalar tree_4_3_u02_r7_network.node[20].content_store 	p_hit[20] 	0.32988496873311
scalar tree_4_3_u02_r7_network.node[20].content_store 	hits[20] 	4273
scalar tree_4_3_u02_r7_network.node[20].content_store 	misses[20] 	8680
scalar tree_4_3_u02_r7_network.node[20].content_store 	decision_yes[20] 	97
scalar tree_4_3_u02_r7_network.node[20].content_store 	decision_no[20] 	8583
scalar tree_4_3_u02_r7_network.node[20].content_store 	decision_ratio[20] 	0.011175115207373
scalar tree_4_3_u02_r7_network.node[21].core_layer 	interests[21] 	12442
scalar tree_4_3_u02_r7_network.node[21].core_layer 	data[21] 	8825
scalar tree_4_3_u02_r7_network.node[21].content_store 	p_hit[21] 	0.2907088892461
scalar tree_4_3_u02_r7_network.node[21].content_store 	hits[21] 	3617
scalar tree_4_3_u02_r7_network.node[21].content_store 	misses[21] 	8825
scalar tree_4_3_u02_r7_network.node[21].content_store 	decision_yes[21] 	93
scalar tree_4_3_u02_r7_network.node[21].content_store 	decision_no[21] 	8732
scalar tree_4_3_u02_r7_network.node[21].content_store 	decision_ratio[21] 	0.010538243626062
scalar tree_4_3_u02_r7_network.node[22].core_layer 	interests[22] 	12671
scalar tree_4_3_u02_r7_network.node[22].core_layer 	data[22] 	8900
scalar tree_4_3_u02_r7_network.node[22].content_store 	p_hit[22] 	0.29760871280878
scalar tree_4_3_u02_r7_network.node[22].content_store 	hits[22] 	3771
scalar tree_4_3_u02_r7_network.node[22].content_store 	misses[22] 	8900
scalar tree_4_3_u02_r7_network.node[22].content_store 	decision_yes[22] 	86
scalar tree_4_3_u02_r7_network.node[22].content_store 	decision_no[22] 	8814
scalar tree_4_3_u02_r7_network.node[22].content_store 	decision_ratio[22] 	0.0096629213483146
scalar tree_4_3_u02_r7_network.node[23].core_layer 	interests[23] 	13036
scalar tree_4_3_u02_r7_network.node[23].core_layer 	data[23] 	8818
scalar tree_4_3_u02_r7_network.node[23].content_store 	p_hit[23] 	0.32348880024547
scalar tree_4_3_u02_r7_network.node[23].content_store 	hits[23] 	4217
scalar tree_4_3_u02_r7_network.node[23].content_store 	misses[23] 	8819
scalar tree_4_3_u02_r7_network.node[23].content_store 	decision_yes[23] 	114
scalar tree_4_3_u02_r7_network.node[23].content_store 	decision_no[23] 	8704
scalar tree_4_3_u02_r7_network.node[23].content_store 	decision_ratio[23] 	0.012928101610342
scalar tree_4_3_u02_r7_network.node[24].core_layer 	interests[24] 	12434
scalar tree_4_3_u02_r7_network.node[24].core_layer 	data[24] 	8739
scalar tree_4_3_u02_r7_network.node[24].content_store 	p_hit[24] 	0.29716905259772
scalar tree_4_3_u02_r7_network.node[24].content_store 	hits[24] 	3695
scalar tree_4_3_u02_r7_network.node[24].content_store 	misses[24] 	8739
scalar tree_4_3_u02_r7_network.node[24].content_store 	decision_yes[24] 	136
scalar tree_4_3_u02_r7_network.node[24].content_store 	decision_no[24] 	8603
scalar tree_4_3_u02_r7_network.node[24].content_store 	decision_ratio[24] 	0.015562421329672
scalar tree_4_3_u02_r7_network.node[25].core_layer 	interests[25] 	12379
scalar tree_4_3_u02_r7_network.node[25].core_layer 	data[25] 	8647
scalar tree_4_3_u02_r7_network.node[25].content_store 	p_hit[25] 	0.3014783100412
scalar tree_4_3_u02_r7_network.node[25].content_store 	hits[25] 	3732
scalar tree_4_3_u02_r7_network.node[25].content_store 	misses[25] 	8647
scalar tree_4_3_u02_r7_network.node[25].content_store 	decision_yes[25] 	105
scalar tree_4_3_u02_r7_network.node[25].content_store 	decision_no[25] 	8542
scalar tree_4_3_u02_r7_network.node[25].content_store 	decision_ratio[25] 	0.012142939747889
scalar tree_4_3_u02_r7_network.node[26].core_layer 	interests[26] 	12626
scalar tree_4_3_u02_r7_network.node[26].core_layer 	data[26] 	8962
scalar tree_4_3_u02_r7_network.node[26].content_store 	p_hit[26] 	0.29019483605259
scalar tree_4_3_u02_r7_network.node[26].content_store 	hits[26] 	3664
scalar tree_4_3_u02_r7_network.node[26].content_store 	misses[26] 	8962
scalar tree_4_3_u02_r7_network.node[26].content_store 	decision_yes[26] 	130
scalar tree_4_3_u02_r7_network.node[26].content_store 	decision_no[26] 	8832
scalar tree_4_3_u02_r7_network.node[26].content_store 	decision_ratio[26] 	0.014505690694042
scalar tree_4_3_u02_r7_network.node[27].core_layer 	interests[27] 	12419
scalar tree_4_3_u02_r7_network.node[27].core_layer 	data[27] 	8716
scalar tree_4_3_u02_r7_network.node[27].content_store 	p_hit[27] 	0.29817215556808
scalar tree_4_3_u02_r7_network.node[27].content_store 	hits[27] 	3703
scalar tree_4_3_u02_r7_network.node[27].content_store 	misses[27] 	8716
scalar tree_4_3_u02_r7_network.node[27].content_store 	decision_yes[27] 	115
scalar tree_4_3_u02_r7_network.node[27].content_store 	decision_no[27] 	8601
scalar tree_4_3_u02_r7_network.node[27].content_store 	decision_ratio[27] 	0.013194125745755
scalar tree_4_3_u02_r7_network.node[28].core_layer 	interests[28] 	12959
scalar tree_4_3_u02_r7_network.node[28].core_layer 	data[28] 	8751
scalar tree_4_3_u02_r7_network.node[28].content_store 	p_hit[28] 	0.32463924685547
scalar tree_4_3_u02_r7_network.node[28].content_store 	hits[28] 	4207
scalar tree_4_3_u02_r7_network.node[28].content_store 	misses[28] 	8752
scalar tree_4_3_u02_r7_network.node[28].content_store 	decision_yes[28] 	100
scalar tree_4_3_u02_r7_network.node[28].content_store 	decision_no[28] 	8651
scalar tree_4_3_u02_r7_network.node[28].content_store 	decision_ratio[28] 	0.011427265455377
scalar tree_4_3_u02_r7_network.node[29].core_layer 	interests[29] 	12322
scalar tree_4_3_u02_r7_network.node[29].core_layer 	data[29] 	8849
scalar tree_4_3_u02_r7_network.node[29].content_store 	p_hit[29] 	0.28185359519559
scalar tree_4_3_u02_r7_network.node[29].content_store 	hits[29] 	3473
scalar tree_4_3_u02_r7_network.node[29].content_store 	misses[29] 	8849
scalar tree_4_3_u02_r7_network.node[29].content_store 	decision_yes[29] 	109
scalar tree_4_3_u02_r7_network.node[29].content_store 	decision_no[29] 	8740
scalar tree_4_3_u02_r7_network.node[29].content_store 	decision_ratio[29] 	0.012317776019889
scalar tree_4_3_u02_r7_network.node[30].core_layer 	interests[30] 	12328
scalar tree_4_3_u02_r7_network.node[30].core_layer 	data[30] 	8762
scalar tree_4_3_u02_r7_network.node[30].content_store 	p_hit[30] 	0.28926022063595
scalar tree_4_3_u02_r7_network.node[30].content_store 	hits[30] 	3566
scalar tree_4_3_u02_r7_network.node[30].content_store 	misses[30] 	8762
scalar tree_4_3_u02_r7_network.node[30].content_store 	decision_yes[30] 	101
scalar tree_4_3_u02_r7_network.node[30].content_store 	decision_no[30] 	8661
scalar tree_4_3_u02_r7_network.node[30].content_store 	decision_ratio[30] 	0.011527048619037
scalar tree_4_3_u02_r7_network.node[31].core_layer 	interests[31] 	12345
scalar tree_4_3_u02_r7_network.node[31].core_layer 	data[31] 	8782
scalar tree_4_3_u02_r7_network.node[31].content_store 	p_hit[31] 	0.28869987849332
scalar tree_4_3_u02_r7_network.node[31].content_store 	hits[31] 	3564
scalar tree_4_3_u02_r7_network.node[31].content_store 	misses[31] 	8781
scalar tree_4_3_u02_r7_network.node[31].content_store 	decision_yes[31] 	126
scalar tree_4_3_u02_r7_network.node[31].content_store 	decision_no[31] 	8656
scalar tree_4_3_u02_r7_network.node[31].content_store 	decision_ratio[31] 	0.014347529036666
scalar tree_4_3_u02_r7_network.node[32].core_layer 	interests[32] 	12799
scalar tree_4_3_u02_r7_network.node[32].core_layer 	data[32] 	8690
scalar tree_4_3_u02_r7_network.node[32].content_store 	p_hit[32] 	0.32096257520119
scalar tree_4_3_u02_r7_network.node[32].content_store 	hits[32] 	4108
scalar tree_4_3_u02_r7_network.node[32].content_store 	misses[32] 	8691
scalar tree_4_3_u02_r7_network.node[32].content_store 	decision_yes[32] 	111
scalar tree_4_3_u02_r7_network.node[32].content_store 	decision_no[32] 	8579
scalar tree_4_3_u02_r7_network.node[32].content_store 	decision_ratio[32] 	0.01277330264672
scalar tree_4_3_u02_r7_network.node[33].core_layer 	interests[33] 	12428
scalar tree_4_3_u02_r7_network.node[33].core_layer 	data[33] 	8670
scalar tree_4_3_u02_r7_network.node[33].content_store 	p_hit[33] 	0.30238171869971
scalar tree_4_3_u02_r7_network.node[33].content_store 	hits[33] 	3758
scalar tree_4_3_u02_r7_network.node[33].content_store 	misses[33] 	8670
scalar tree_4_3_u02_r7_network.node[33].content_store 	decision_yes[33] 	95
scalar tree_4_3_u02_r7_network.node[33].content_store 	decision_no[33] 	8575
scalar tree_4_3_u02_r7_network.node[33].content_store 	decision_ratio[33] 	0.010957324106113
scalar tree_4_3_u02_r7_network.node[34].core_layer 	interests[34] 	12675
scalar tree_4_3_u02_r7_network.node[34].core_layer 	data[34] 	8876
scalar tree_4_3_u02_r7_network.node[34].content_store 	p_hit[34] 	0.29972386587771
scalar tree_4_3_u02_r7_network.node[34].content_store 	hits[34] 	3799
scalar tree_4_3_u02_r7_network.node[34].content_store 	misses[34] 	8876
scalar tree_4_3_u02_r7_network.node[34].content_store 	decision_yes[34] 	98
scalar tree_4_3_u02_r7_network.node[34].content_store 	decision_no[34] 	8778
scalar tree_4_3_u02_r7_network.node[34].content_store 	decision_ratio[34] 	0.011041009463722
scalar tree_4_3_u02_r7_network.node[35].core_layer 	interests[35] 	12479
scalar tree_4_3_u02_r7_network.node[35].core_layer 	data[35] 	8838
scalar tree_4_3_u02_r7_network.node[35].content_store 	p_hit[35] 	0.29169003926597
scalar tree_4_3_u02_r7_network.node[35].content_store 	hits[35] 	3640
scalar tree_4_3_u02_r7_network.node[35].content_store 	misses[35] 	8839
scalar tree_4_3_u02_r7_network.node[35].content_store 	decision_yes[35] 	136
scalar tree_4_3_u02_r7_network.node[35].content_store 	decision_no[35] 	8702
scalar tree_4_3_u02_r7_network.node[35].content_store 	decision_ratio[35] 	0.015388096854492
scalar tree_4_3_u02_r7_network.node[36].core_layer 	interests[36] 	12978
scalar tree_4_3_u02_r7_network.node[36].core_layer 	data[36] 	8693
scalar tree_4_3_u02_r7_network.node[36].content_store 	p_hit[36] 	0.33017414085375
scalar tree_4_3_u02_r7_network.node[36].content_store 	hits[36] 	4285
scalar tree_4_3_u02_r7_network.node[36].content_store 	misses[36] 	8693
scalar tree_4_3_u02_r7_network.node[36].content_store 	decision_yes[36] 	117
scalar tree_4_3_u02_r7_network.node[36].content_store 	decision_no[36] 	8576
scalar tree_4_3_u02_r7_network.node[36].content_store 	decision_ratio[36] 	0.013459105027033
scalar tree_4_3_u02_r7_network.node[37].core_layer 	interests[37] 	12531
scalar tree_4_3_u02_r7_network.node[37].core_layer 	data[37] 	8827
scalar tree_4_3_u02_r7_network.node[37].content_store 	p_hit[37] 	0.29558694437794
scalar tree_4_3_u02_r7_network.node[37].content_store 	hits[37] 	3704
scalar tree_4_3_u02_r7_network.node[37].content_store 	misses[37] 	8827
scalar tree_4_3_u02_r7_network.node[37].content_store 	decision_yes[37] 	115
scalar tree_4_3_u02_r7_network.node[37].content_store 	decision_no[37] 	8712
scalar tree_4_3_u02_r7_network.node[37].content_store 	decision_ratio[37] 	0.013028208904498
scalar tree_4_3_u02_r7_network.node[38].core_layer 	interests[38] 	12394
scalar tree_4_3_u02_r7_network.node[38].core_layer 	data[38] 	8707
scalar tree_4_3_u02_r7_network.node[38].content_store 	p_hit[38] 	0.29748265289656
scalar tree_4_3_u02_r7_network.node[38].content_store 	hits[38] 	3687
scalar tree_4_3_u02_r7_network.node[38].content_store 	misses[38] 	8707
scalar tree_4_3_u02_r7_network.node[38].content_store 	decision_yes[38] 	97
scalar tree_4_3_u02_r7_network.node[38].content_store 	decision_no[38] 	8610
scalar tree_4_3_u02_r7_network.node[38].content_store 	decision_ratio[38] 	0.011140461697485
scalar tree_4_3_u02_r7_network.node[39].core_layer 	interests[39] 	12495
scalar tree_4_3_u02_r7_network.node[39].core_layer 	data[39] 	8731
scalar tree_4_3_u02_r7_network.node[39].content_store 	p_hit[39] 	0.30116046418567
scalar tree_4_3_u02_r7_network.node[39].content_store 	hits[39] 	3763
scalar tree_4_3_u02_r7_network.node[39].content_store 	misses[39] 	8732
scalar tree_4_3_u02_r7_network.node[39].content_store 	decision_yes[39] 	113
scalar tree_4_3_u02_r7_network.node[39].content_store 	decision_no[39] 	8618
scalar tree_4_3_u02_r7_network.node[39].content_store 	decision_ratio[39] 	0.012942389187951
scalar tree_4_3_u02_r7_network.client[13] 	hdistance[13] 	2.7090167417354
scalar tree_4_3_u02_r7_network.client[13] 	downloads[13] 	11767
scalar tree_4_3_u02_r7_network.client[13] 	avg_time[13] 	0.004209736153
scalar tree_4_3_u02_r7_network.client[14] 	hdistance[14] 	2.7019334495063
scalar tree_4_3_u02_r7_network.client[14] 	downloads[14] 	12051
scalar tree_4_3_u02_r7_network.client[14] 	avg_time[14] 	0.004208242723
scalar tree_4_3_u02_r7_network.client[15] 	hdistance[15] 	2.7051463841855
scalar tree_4_3_u02_r7_network.client[15] 	downloads[15] 	11989
scalar tree_4_3_u02_r7_network.client[15] 	avg_time[15] 	0.00420067354
scalar tree_4_3_u02_r7_network.client[16] 	hdistance[16] 	2.6725990886424
scalar tree_4_3_u02_r7_network.client[16] 	downloads[16] 	11631
scalar tree_4_3_u02_r7_network.client[16] 	avg_time[16] 	0.004153380285
scalar tree_4_3_u02_r7_network.client[17] 	hdistance[17] 	2.6531278787371
scalar tree_4_3_u02_r7_network.client[17] 	downloads[17] 	11941
scalar tree_4_3_u02_r7_network.client[17] 	avg_time[17] 	0.004115565258
scalar tree_4_3_u02_r7_network.client[18] 	hdistance[18] 	2.6739311957248
scalar tree_4_3_u02_r7_network.client[18] 	downloads[18] 	11976
scalar tree_4_3_u02_r7_network.client[18] 	avg_time[18] 	0.004147458592
scalar tree_4_3_u02_r7_network.client[19] 	hdistance[19] 	2.6802408228113
scalar tree_4_3_u02_r7_network.client[19] 	downloads[19] 	11959
scalar tree_4_3_u02_r7_network.client[19] 	avg_time[19] 	0.004162050671
scalar tree_4_3_u02_r7_network.client[20] 	hdistance[20] 	2.6163258464633
scalar tree_4_3_u02_r7_network.client[20] 	downloads[20] 	11932
scalar tree_4_3_u02_r7_network.client[20] 	avg_time[20] 	0.00403489817
scalar tree_4_3_u02_r7_network.client[21] 	hdistance[21] 	2.6956414066369
scalar tree_4_3_u02_r7_network.client[21] 	downloads[21] 	12114
scalar tree_4_3_u02_r7_network.client[21] 	avg_time[21] 	0.004187053291
scalar tree_4_3_u02_r7_network.client[22] 	hdistance[22] 	2.6706355723436
scalar tree_4_3_u02_r7_network.client[22] 	downloads[22] 	12178
scalar tree_4_3_u02_r7_network.client[22] 	avg_time[22] 	0.00414796873
scalar tree_4_3_u02_r7_network.client[23] 	hdistance[23] 	2.6592254354811
scalar tree_4_3_u02_r7_network.client[23] 	downloads[23] 	11826
scalar tree_4_3_u02_r7_network.client[23] 	avg_time[23] 	0.004105696358
scalar tree_4_3_u02_r7_network.client[24] 	hdistance[24] 	2.6632832816039
scalar tree_4_3_u02_r7_network.client[24] 	downloads[24] 	11921
scalar tree_4_3_u02_r7_network.client[24] 	avg_time[24] 	0.004139079312
scalar tree_4_3_u02_r7_network.client[25] 	hdistance[25] 	2.6582236014426
scalar tree_4_3_u02_r7_network.client[25] 	downloads[25] 	11923
scalar tree_4_3_u02_r7_network.client[25] 	avg_time[25] 	0.004126307497
scalar tree_4_3_u02_r7_network.client[26] 	hdistance[26] 	2.6912115970678
scalar tree_4_3_u02_r7_network.client[26] 	downloads[26] 	12141
scalar tree_4_3_u02_r7_network.client[26] 	avg_time[26] 	0.004181530594
scalar tree_4_3_u02_r7_network.client[27] 	hdistance[27] 	2.6644626715768
scalar tree_4_3_u02_r7_network.client[27] 	downloads[27] 	11948
scalar tree_4_3_u02_r7_network.client[27] 	avg_time[27] 	0.004136923703
scalar tree_4_3_u02_r7_network.client[28] 	hdistance[28] 	2.6204794120104
scalar tree_4_3_u02_r7_network.client[28] 	downloads[28] 	11973
scalar tree_4_3_u02_r7_network.client[28] 	avg_time[28] 	0.004045466421
scalar tree_4_3_u02_r7_network.client[29] 	hdistance[29] 	2.7153175591532
scalar tree_4_3_u02_r7_network.client[29] 	downloads[29] 	12045
scalar tree_4_3_u02_r7_network.client[29] 	avg_time[29] 	0.004220171327
scalar tree_4_3_u02_r7_network.client[30] 	hdistance[30] 	2.6984351589812
scalar tree_4_3_u02_r7_network.client[30] 	downloads[30] 	12014
scalar tree_4_3_u02_r7_network.client[30] 	avg_time[30] 	0.004190607923
scalar tree_4_3_u02_r7_network.client[31] 	hdistance[31] 	2.6841579210395
scalar tree_4_3_u02_r7_network.client[31] 	downloads[31] 	12006
scalar tree_4_3_u02_r7_network.client[31] 	avg_time[31] 	0.004182738934
scalar tree_4_3_u02_r7_network.client[32] 	hdistance[32] 	2.6284554907431
scalar tree_4_3_u02_r7_network.client[32] 	downloads[32] 	11829
scalar tree_4_3_u02_r7_network.client[32] 	avg_time[32] 	0.004062220073
scalar tree_4_3_u02_r7_network.client[33] 	hdistance[33] 	2.6632839793712
scalar tree_4_3_u02_r7_network.client[33] 	downloads[33] 	12022
scalar tree_4_3_u02_r7_network.client[33] 	avg_time[33] 	0.004139075378
scalar tree_4_3_u02_r7_network.client[34] 	hdistance[34] 	2.6516118474881
scalar tree_4_3_u02_r7_network.client[34] 	downloads[34] 	12222
scalar tree_4_3_u02_r7_network.client[34] 	avg_time[34] 	0.004113642353
scalar tree_4_3_u02_r7_network.client[35] 	hdistance[35] 	2.6751767151767
scalar tree_4_3_u02_r7_network.client[35] 	downloads[35] 	12025
scalar tree_4_3_u02_r7_network.client[35] 	avg_time[35] 	0.004152595118
scalar tree_4_3_u02_r7_network.client[36] 	hdistance[36] 	2.585011748909
scalar tree_4_3_u02_r7_network.client[36] 	downloads[36] 	11916
scalar tree_4_3_u02_r7_network.client[36] 	avg_time[36] 	0.003996144454
scalar tree_4_3_u02_r7_network.client[37] 	hdistance[37] 	2.6766611295681
scalar tree_4_3_u02_r7_network.client[37] 	downloads[37] 	12040
scalar tree_4_3_u02_r7_network.client[37] 	avg_time[37] 	0.004156143161
scalar tree_4_3_u02_r7_network.client[38] 	hdistance[38] 	2.6748219522413
scalar tree_4_3_u02_r7_network.client[38] 	downloads[38] 	11935
scalar tree_4_3_u02_r7_network.client[38] 	avg_time[38] 	0.004148803035
scalar tree_4_3_u02_r7_network.client[39] 	hdistance[39] 	2.6624511190615
scalar tree_4_3_u02_r7_network.client[39] 	downloads[39] 	12019
scalar tree_4_3_u02_r7_network.client[39] 	avg_time[39] 	0.004135597805
