version 2
run General-583-20160901-14:20:19-8710
attr a 0.9
attr cd ffc0.25
attr configname General
attr cr lru
attr datetime 20160901-14:20:19
attr experiment General
attr fsize 1
attr inifile hw5115/scenario_Y/omnetp.ini
attr iterationvars "$name=tree_4_3, $un=09, $rep=15, $cd=ffc0.25, $cr=lru, $fsize=1, $a=0.9, $sl=nrr, $ttl=1000, $variance=0.05"
attr iterationvars2 "$name=tree_4_3, $un=09, $rep=15, $cd=ffc0.25, $cr=lru, $fsize=1, $a=0.9, $sl=nrr, $ttl=1000, $variance=0.05, $repetition=0"
attr measurement "$name=tree_4_3, $un=09, $rep=15, $cd=ffc0.25, $cr=lru, $fsize=1, $a=0.9, $sl=nrr, $ttl=1000, $variance=0.05"
attr name tree_4_3
attr network networks.${name}_u${un}_r${rep}_network
attr processid 8710
attr rep 15
attr repetition 0
attr replication #0
attr resultdir results
attr runnumber 583
attr seedset 15
attr sl nrr
attr ttl 1000
attr un 09
attr variance 0.05

scalar . 	a 	0.9
scalar . 	fsize 	1
scalar . 	rep 	15
scalar . 	ttl 	1000
scalar . 	un 	09
scalar . 	variance 	0.05
scalar tree_4_3_u09_r15_network.content_distribution 	repo-0 	0
scalar tree_4_3_u09_r15_network.content_distribution 	client-0 	13
scalar tree_4_3_u09_r15_network.content_distribution 	client-1 	14
scalar tree_4_3_u09_r15_network.content_distribution 	client-2 	15
scalar tree_4_3_u09_r15_network.content_distribution 	client-3 	16
scalar tree_4_3_u09_r15_network.content_distribution 	client-4 	17
scalar tree_4_3_u09_r15_network.content_distribution 	client-5 	18
scalar tree_4_3_u09_r15_network.content_distribution 	client-6 	19
scalar tree_4_3_u09_r15_network.content_distribution 	client-7 	20
scalar tree_4_3_u09_r15_network.content_distribution 	client-8 	21
scalar tree_4_3_u09_r15_network.content_distribution 	client-9 	22
scalar tree_4_3_u09_r15_network.content_distribution 	client-10 	23
scalar tree_4_3_u09_r15_network.content_distribution 	client-11 	24
scalar tree_4_3_u09_r15_network.content_distribution 	client-12 	25
scalar tree_4_3_u09_r15_network.content_distribution 	client-13 	26
scalar tree_4_3_u09_r15_network.content_distribution 	client-14 	27
scalar tree_4_3_u09_r15_network.content_distribution 	client-15 	28
scalar tree_4_3_u09_r15_network.content_distribution 	client-16 	29
scalar tree_4_3_u09_r15_network.content_distribution 	client-17 	30
scalar tree_4_3_u09_r15_network.content_distribution 	client-18 	31
scalar tree_4_3_u09_r15_network.content_distribution 	client-19 	32
scalar tree_4_3_u09_r15_network.content_distribution 	client-20 	33
scalar tree_4_3_u09_r15_network.content_distribution 	client-21 	34
scalar tree_4_3_u09_r15_network.content_distribution 	client-22 	35
scalar tree_4_3_u09_r15_network.content_distribution 	client-23 	36
scalar tree_4_3_u09_r15_network.content_distribution 	client-24 	37
scalar tree_4_3_u09_r15_network.content_distribution 	client-25 	38
scalar tree_4_3_u09_r15_network.content_distribution 	client-26 	39
scalar tree_4_3_u09_r15_network.content_distribution 	repo-0_card 	100000
scalar tree_4_3_u09_r15_network.content_distribution 	repo-0_price 	0
scalar tree_4_3_u09_r15_network.statistics 	stabilization_time 	1769.5
scalar tree_4_3_u09_r15_network.statistics 	p_hit 	0.24734611781677
scalar tree_4_3_u09_r15_network.statistics 	interests 	24577.25
scalar tree_4_3_u09_r15_network.statistics 	data 	16466.25
scalar tree_4_3_u09_r15_network.statistics 	hdistance 	2.5779202624654
scalar tree_4_3_u09_r15_network.statistics 	avg_time 	0.004060354648
scalar tree_4_3_u09_r15_network.statistics 	downloads 	324437
scalar tree_4_3_u09_r15_network.statistics 	total_cost 	0
scalar tree_4_3_u09_r15_network.statistics 	total_replicas 	100000
scalar tree_4_3_u09_r15_network.statistics 	inner_hit 	0.45232202245736
scalar tree_4_3_u09_r15_network.node[0].core_layer 	interests[0] 	180474
scalar tree_4_3_u09_r15_network.node[0].core_layer 	repo_load[0] 	177687
scalar tree_4_3_u09_r15_network.node[0].core_layer 	data[0] 	0
scalar tree_4_3_u09_r15_network.node[0].core_layer 	repo_int[0] 	177687
scalar tree_4_3_u09_r15_network.node[0].content_store 	p_hit[0] 	0.015442667641876
scalar tree_4_3_u09_r15_network.node[0].content_store 	hits[0] 	2787
scalar tree_4_3_u09_r15_network.node[0].content_store 	misses[0] 	177687
scalar tree_4_3_u09_r15_network.node[0].content_store 	decision_yes[0] 	193
scalar tree_4_3_u09_r15_network.node[0].content_store 	decision_no[0] 	177494
scalar tree_4_3_u09_r15_network.node[0].content_store 	decision_ratio[0] 	0.0010861796304738
scalar tree_4_3_u09_r15_network.node[1].core_layer 	interests[1] 	138158
scalar tree_4_3_u09_r15_network.node[1].core_layer 	data[1] 	134731
scalar tree_4_3_u09_r15_network.node[1].content_store 	p_hit[1] 	0.024783219212785
scalar tree_4_3_u09_r15_network.node[1].content_store 	hits[1] 	3424
scalar tree_4_3_u09_r15_network.node[1].content_store 	misses[1] 	134734
scalar tree_4_3_u09_r15_network.node[1].content_store 	decision_yes[1] 	145
scalar tree_4_3_u09_r15_network.node[1].content_store 	decision_no[1] 	134586
scalar tree_4_3_u09_r15_network.node[1].content_store 	decision_ratio[1] 	0.0010762185391632
scalar tree_4_3_u09_r15_network.node[2].core_layer 	interests[2] 	55260
scalar tree_4_3_u09_r15_network.node[2].core_layer 	data[2] 	51913
scalar tree_4_3_u09_r15_network.node[2].content_store 	p_hit[2] 	0.060550126673905
scalar tree_4_3_u09_r15_network.node[2].content_store 	hits[2] 	3346
scalar tree_4_3_u09_r15_network.node[2].content_store 	misses[2] 	51914
scalar tree_4_3_u09_r15_network.node[2].content_store 	decision_yes[2] 	82
scalar tree_4_3_u09_r15_network.node[2].content_store 	decision_no[2] 	51831
scalar tree_4_3_u09_r15_network.node[2].content_store 	decision_ratio[2] 	0.0015795658120317
scalar tree_4_3_u09_r15_network.node[3].core_layer 	interests[3] 	13393
scalar tree_4_3_u09_r15_network.node[3].core_layer 	data[3] 	9938
scalar tree_4_3_u09_r15_network.node[3].content_store 	p_hit[3] 	0.25797058164713
scalar tree_4_3_u09_r15_network.node[3].content_store 	hits[3] 	3455
scalar tree_4_3_u09_r15_network.node[3].content_store 	misses[3] 	9938
scalar tree_4_3_u09_r15_network.node[3].content_store 	decision_yes[3] 	60
scalar tree_4_3_u09_r15_network.node[3].content_store 	decision_no[3] 	9878
scalar tree_4_3_u09_r15_network.node[3].content_store 	decision_ratio[3] 	0.0060374320788891
scalar tree_4_3_u09_r15_network.node[4].core_layer 	interests[4] 	34365
scalar tree_4_3_u09_r15_network.node[4].core_layer 	data[4] 	31814
scalar tree_4_3_u09_r15_network.node[4].content_store 	p_hit[4] 	0.074203404626801
scalar tree_4_3_u09_r15_network.node[4].content_store 	hits[4] 	2550
scalar tree_4_3_u09_r15_network.node[4].content_store 	misses[4] 	31815
scalar tree_4_3_u09_r15_network.node[4].content_store 	decision_yes[4] 	82
scalar tree_4_3_u09_r15_network.node[4].content_store 	decision_no[4] 	31732
scalar tree_4_3_u09_r15_network.node[4].content_store 	decision_ratio[4] 	0.002577481611869
scalar tree_4_3_u09_r15_network.node[5].core_layer 	interests[5] 	36445
scalar tree_4_3_u09_r15_network.node[5].core_layer 	data[5] 	33105
scalar tree_4_3_u09_r15_network.node[5].content_store 	p_hit[5] 	0.091672383042941
scalar tree_4_3_u09_r15_network.node[5].content_store 	hits[5] 	3341
scalar tree_4_3_u09_r15_network.node[5].content_store 	misses[5] 	33104
scalar tree_4_3_u09_r15_network.node[5].content_store 	decision_yes[5] 	77
scalar tree_4_3_u09_r15_network.node[5].content_store 	decision_no[5] 	33028
scalar tree_4_3_u09_r15_network.node[5].content_store 	decision_ratio[5] 	0.0023259326385742
scalar tree_4_3_u09_r15_network.node[6].core_layer 	interests[6] 	14528
scalar tree_4_3_u09_r15_network.node[6].core_layer 	data[6] 	10723
scalar tree_4_3_u09_r15_network.node[6].content_store 	p_hit[6] 	0.26177037444934
scalar tree_4_3_u09_r15_network.node[6].content_store 	hits[6] 	3803
scalar tree_4_3_u09_r15_network.node[6].content_store 	misses[6] 	10725
scalar tree_4_3_u09_r15_network.node[6].content_store 	decision_yes[6] 	88
scalar tree_4_3_u09_r15_network.node[6].content_store 	decision_no[6] 	10635
scalar tree_4_3_u09_r15_network.node[6].content_store 	decision_ratio[6] 	0.0082066585843514
scalar tree_4_3_u09_r15_network.node[7].core_layer 	interests[7] 	43744
scalar tree_4_3_u09_r15_network.node[7].core_layer 	data[7] 	40016
scalar tree_4_3_u09_r15_network.node[7].content_store 	p_hit[7] 	0.085200256035113
scalar tree_4_3_u09_r15_network.node[7].content_store 	hits[7] 	3727
scalar tree_4_3_u09_r15_network.node[7].content_store 	misses[7] 	40017
scalar tree_4_3_u09_r15_network.node[7].content_store 	decision_yes[7] 	92
scalar tree_4_3_u09_r15_network.node[7].content_store 	decision_no[7] 	39924
scalar tree_4_3_u09_r15_network.node[7].content_store 	decision_ratio[7] 	0.0022990803678529
scalar tree_4_3_u09_r15_network.node[8].core_layer 	interests[8] 	26617
scalar tree_4_3_u09_r15_network.node[8].core_layer 	data[8] 	23831
scalar tree_4_3_u09_r15_network.node[8].content_store 	p_hit[8] 	0.10466994777774
scalar tree_4_3_u09_r15_network.node[8].content_store 	hits[8] 	2786
scalar tree_4_3_u09_r15_network.node[8].content_store 	misses[8] 	23831
scalar tree_4_3_u09_r15_network.node[8].content_store 	decision_yes[8] 	45
scalar tree_4_3_u09_r15_network.node[8].content_store 	decision_no[8] 	23786
scalar tree_4_3_u09_r15_network.node[8].content_store 	decision_ratio[8] 	0.0018882967563258
scalar tree_4_3_u09_r15_network.node[9].core_layer 	interests[9] 	13815
scalar tree_4_3_u09_r15_network.node[9].core_layer 	data[9] 	10439
scalar tree_4_3_u09_r15_network.node[9].content_store 	p_hit[9] 	0.24437205935577
scalar tree_4_3_u09_r15_network.node[9].content_store 	hits[9] 	3376
scalar tree_4_3_u09_r15_network.node[9].content_store 	misses[9] 	10439
scalar tree_4_3_u09_r15_network.node[9].content_store 	decision_yes[9] 	78
scalar tree_4_3_u09_r15_network.node[9].content_store 	decision_no[9] 	10361
scalar tree_4_3_u09_r15_network.node[9].content_store 	decision_ratio[9] 	0.0074719800747198
scalar tree_4_3_u09_r15_network.node[10].core_layer 	interests[10] 	43687
scalar tree_4_3_u09_r15_network.node[10].core_layer 	data[10] 	39996
scalar tree_4_3_u09_r15_network.node[10].content_store 	p_hit[10] 	0.084441595898093
scalar tree_4_3_u09_r15_network.node[10].content_store 	hits[10] 	3689
scalar tree_4_3_u09_r15_network.node[10].content_store 	misses[10] 	39998
scalar tree_4_3_u09_r15_network.node[10].content_store 	decision_yes[10] 	78
scalar tree_4_3_u09_r15_network.node[10].content_store 	decision_no[10] 	39918
scalar tree_4_3_u09_r15_network.node[10].content_store 	decision_ratio[10] 	0.001950195019502
scalar tree_4_3_u09_r15_network.node[11].core_layer 	interests[11] 	28752
scalar tree_4_3_u09_r15_network.node[11].core_layer 	data[11] 	25557
scalar tree_4_3_u09_r15_network.node[11].content_store 	p_hit[11] 	0.11108792431831
scalar tree_4_3_u09_r15_network.node[11].content_store 	hits[11] 	3194
scalar tree_4_3_u09_r15_network.node[11].content_store 	misses[11] 	25558
scalar tree_4_3_u09_r15_network.node[11].content_store 	decision_yes[11] 	63
scalar tree_4_3_u09_r15_network.node[11].content_store 	decision_no[11] 	25494
scalar tree_4_3_u09_r15_network.node[11].content_store 	decision_ratio[11] 	0.0024650780608053
scalar tree_4_3_u09_r15_network.node[12].core_layer 	interests[12] 	11773
scalar tree_4_3_u09_r15_network.node[12].core_layer 	data[12] 	8970
scalar tree_4_3_u09_r15_network.node[12].content_store 	p_hit[12] 	0.23808714856026
scalar tree_4_3_u09_r15_network.node[12].content_store 	hits[12] 	2803
scalar tree_4_3_u09_r15_network.node[12].content_store 	misses[12] 	8970
scalar tree_4_3_u09_r15_network.node[12].content_store 	decision_yes[12] 	52
scalar tree_4_3_u09_r15_network.node[12].content_store 	decision_no[12] 	8918
scalar tree_4_3_u09_r15_network.node[12].content_store 	decision_ratio[12] 	0.0057971014492754
scalar tree_4_3_u09_r15_network.node[13].core_layer 	interests[13] 	12306
scalar tree_4_3_u09_r15_network.node[13].core_layer 	data[13] 	8640
scalar tree_4_3_u09_r15_network.node[13].content_store 	p_hit[13] 	0.29790346172599
scalar tree_4_3_u09_r15_network.node[13].content_store 	hits[13] 	3666
scalar tree_4_3_u09_r15_network.node[13].content_store 	misses[13] 	8640
scalar tree_4_3_u09_r15_network.node[13].content_store 	decision_yes[13] 	33
scalar tree_4_3_u09_r15_network.node[13].content_store 	decision_no[13] 	8607
scalar tree_4_3_u09_r15_network.node[13].content_store 	decision_ratio[13] 	0.0038194444444444
scalar tree_4_3_u09_r15_network.node[14].core_layer 	interests[14] 	12388
scalar tree_4_3_u09_r15_network.node[14].core_layer 	data[14] 	8751
scalar tree_4_3_u09_r15_network.node[14].content_store 	p_hit[14] 	0.29359057152083
scalar tree_4_3_u09_r15_network.node[14].content_store 	hits[14] 	3637
scalar tree_4_3_u09_r15_network.node[14].content_store 	misses[14] 	8751
scalar tree_4_3_u09_r15_network.node[14].content_store 	decision_yes[14] 	24
scalar tree_4_3_u09_r15_network.node[14].content_store 	decision_no[14] 	8727
scalar tree_4_3_u09_r15_network.node[14].content_store 	decision_ratio[14] 	0.0027425437092904
scalar tree_4_3_u09_r15_network.node[15].core_layer 	interests[15] 	12891
scalar tree_4_3_u09_r15_network.node[15].core_layer 	data[15] 	8803
scalar tree_4_3_u09_r15_network.node[15].content_store 	p_hit[15] 	0.31712047164689
scalar tree_4_3_u09_r15_network.node[15].content_store 	hits[15] 	4088
scalar tree_4_3_u09_r15_network.node[15].content_store 	misses[15] 	8803
scalar tree_4_3_u09_r15_network.node[15].content_store 	decision_yes[15] 	30
scalar tree_4_3_u09_r15_network.node[15].content_store 	decision_no[15] 	8773
scalar tree_4_3_u09_r15_network.node[15].content_store 	decision_ratio[15] 	0.0034079291150744
scalar tree_4_3_u09_r15_network.node[16].core_layer 	interests[16] 	12672
scalar tree_4_3_u09_r15_network.node[16].core_layer 	data[16] 	8903
scalar tree_4_3_u09_r15_network.node[16].content_store 	p_hit[16] 	0.29750631313131
scalar tree_4_3_u09_r15_network.node[16].content_store 	hits[16] 	3770
scalar tree_4_3_u09_r15_network.node[16].content_store 	misses[16] 	8902
scalar tree_4_3_u09_r15_network.node[16].content_store 	decision_yes[16] 	28
scalar tree_4_3_u09_r15_network.node[16].content_store 	decision_no[16] 	8875
scalar tree_4_3_u09_r15_network.node[16].content_store 	decision_ratio[16] 	0.0031450073009098
scalar tree_4_3_u09_r15_network.node[17].core_layer 	interests[17] 	12573
scalar tree_4_3_u09_r15_network.node[17].core_layer 	data[17] 	8803
scalar tree_4_3_u09_r15_network.node[17].content_store 	p_hit[17] 	0.29984888252605
scalar tree_4_3_u09_r15_network.node[17].content_store 	hits[17] 	3770
scalar tree_4_3_u09_r15_network.node[17].content_store 	misses[17] 	8803
scalar tree_4_3_u09_r15_network.node[17].content_store 	decision_yes[17] 	27
scalar tree_4_3_u09_r15_network.node[17].content_store 	decision_no[17] 	8776
scalar tree_4_3_u09_r15_network.node[17].content_store 	decision_ratio[17] 	0.003067136203567
scalar tree_4_3_u09_r15_network.node[18].core_layer 	interests[18] 	12774
scalar tree_4_3_u09_r15_network.node[18].core_layer 	data[18] 	8777
scalar tree_4_3_u09_r15_network.node[18].content_store 	p_hit[18] 	0.31290120557382
scalar tree_4_3_u09_r15_network.node[18].content_store 	hits[18] 	3997
scalar tree_4_3_u09_r15_network.node[18].content_store 	misses[18] 	8777
scalar tree_4_3_u09_r15_network.node[18].content_store 	decision_yes[18] 	29
scalar tree_4_3_u09_r15_network.node[18].content_store 	decision_no[18] 	8748
scalar tree_4_3_u09_r15_network.node[18].content_store 	decision_ratio[18] 	0.0033040902358437
scalar tree_4_3_u09_r15_network.node[19].core_layer 	interests[19] 	12907
scalar tree_4_3_u09_r15_network.node[19].core_layer 	data[19] 	8828
scalar tree_4_3_u09_r15_network.node[19].content_store 	p_hit[19] 	0.3160300612071
scalar tree_4_3_u09_r15_network.node[19].content_store 	hits[19] 	4079
scalar tree_4_3_u09_r15_network.node[19].content_store 	misses[19] 	8828
scalar tree_4_3_u09_r15_network.node[19].content_store 	decision_yes[19] 	30
scalar tree_4_3_u09_r15_network.node[19].content_store 	decision_no[19] 	8798
scalar tree_4_3_u09_r15_network.node[19].content_store 	decision_ratio[19] 	0.0033982782057091
scalar tree_4_3_u09_r15_network.node[20].core_layer 	interests[20] 	13127
scalar tree_4_3_u09_r15_network.node[20].core_layer 	data[20] 	8950
scalar tree_4_3_u09_r15_network.node[20].content_store 	p_hit[20] 	0.31819913156091
scalar tree_4_3_u09_r15_network.node[20].content_store 	hits[20] 	4177
scalar tree_4_3_u09_r15_network.node[20].content_store 	misses[20] 	8950
scalar tree_4_3_u09_r15_network.node[20].content_store 	decision_yes[20] 	46
scalar tree_4_3_u09_r15_network.node[20].content_store 	decision_no[20] 	8904
scalar tree_4_3_u09_r15_network.node[20].content_store 	decision_ratio[20] 	0.0051396648044693
scalar tree_4_3_u09_r15_network.node[21].core_layer 	interests[21] 	12497
scalar tree_4_3_u09_r15_network.node[21].core_layer 	data[21] 	8890
scalar tree_4_3_u09_r15_network.node[21].content_store 	p_hit[21] 	0.28862927102505
scalar tree_4_3_u09_r15_network.node[21].content_store 	hits[21] 	3607
scalar tree_4_3_u09_r15_network.node[21].content_store 	misses[21] 	8890
scalar tree_4_3_u09_r15_network.node[21].content_store 	decision_yes[21] 	29
scalar tree_4_3_u09_r15_network.node[21].content_store 	decision_no[21] 	8861
scalar tree_4_3_u09_r15_network.node[21].content_store 	decision_ratio[21] 	0.0032620922384702
scalar tree_4_3_u09_r15_network.node[22].core_layer 	interests[22] 	12339
scalar tree_4_3_u09_r15_network.node[22].core_layer 	data[22] 	8675
scalar tree_4_3_u09_r15_network.node[22].content_store 	p_hit[22] 	0.29694464705406
scalar tree_4_3_u09_r15_network.node[22].content_store 	hits[22] 	3664
scalar tree_4_3_u09_r15_network.node[22].content_store 	misses[22] 	8675
scalar tree_4_3_u09_r15_network.node[22].content_store 	decision_yes[22] 	25
scalar tree_4_3_u09_r15_network.node[22].content_store 	decision_no[22] 	8650
scalar tree_4_3_u09_r15_network.node[22].content_store 	decision_ratio[22] 	0.0028818443804035
scalar tree_4_3_u09_r15_network.node[23].core_layer 	interests[23] 	12840
scalar tree_4_3_u09_r15_network.node[23].core_layer 	data[23] 	8720
scalar tree_4_3_u09_r15_network.node[23].content_store 	p_hit[23] 	0.3208722741433
scalar tree_4_3_u09_r15_network.node[23].content_store 	hits[23] 	4120
scalar tree_4_3_u09_r15_network.node[23].content_store 	misses[23] 	8720
scalar tree_4_3_u09_r15_network.node[23].content_store 	decision_yes[23] 	20
scalar tree_4_3_u09_r15_network.node[23].content_store 	decision_no[23] 	8700
scalar tree_4_3_u09_r15_network.node[23].content_store 	decision_ratio[23] 	0.0022935779816514
scalar tree_4_3_u09_r15_network.node[24].core_layer 	interests[24] 	12794
scalar tree_4_3_u09_r15_network.node[24].core_layer 	data[24] 	8812
scalar tree_4_3_u09_r15_network.node[24].content_store 	p_hit[24] 	0.31123964358293
scalar tree_4_3_u09_r15_network.node[24].content_store 	hits[24] 	3982
scalar tree_4_3_u09_r15_network.node[24].content_store 	misses[24] 	8812
scalar tree_4_3_u09_r15_network.node[24].content_store 	decision_yes[24] 	28
scalar tree_4_3_u09_r15_network.node[24].content_store 	decision_no[24] 	8784
scalar tree_4_3_u09_r15_network.node[24].content_store 	decision_ratio[24] 	0.0031774852473899
scalar tree_4_3_u09_r15_network.node[25].core_layer 	interests[25] 	12917
scalar tree_4_3_u09_r15_network.node[25].core_layer 	data[25] 	8822
scalar tree_4_3_u09_r15_network.node[25].content_store 	p_hit[25] 	0.31702407679802
scalar tree_4_3_u09_r15_network.node[25].content_store 	hits[25] 	4095
scalar tree_4_3_u09_r15_network.node[25].content_store 	misses[25] 	8822
scalar tree_4_3_u09_r15_network.node[25].content_store 	decision_yes[25] 	38
scalar tree_4_3_u09_r15_network.node[25].content_store 	decision_no[25] 	8784
scalar tree_4_3_u09_r15_network.node[25].content_store 	decision_ratio[25] 	0.0043074132849694
scalar tree_4_3_u09_r15_network.node[26].core_layer 	interests[26] 	12229
scalar tree_4_3_u09_r15_network.node[26].core_layer 	data[26] 	8641
scalar tree_4_3_u09_r15_network.node[26].content_store 	p_hit[26] 	0.29340093221032
scalar tree_4_3_u09_r15_network.node[26].content_store 	hits[26] 	3588
scalar tree_4_3_u09_r15_network.node[26].content_store 	misses[26] 	8641
scalar tree_4_3_u09_r15_network.node[26].content_store 	decision_yes[26] 	26
scalar tree_4_3_u09_r15_network.node[26].content_store 	decision_no[26] 	8615
scalar tree_4_3_u09_r15_network.node[26].content_store 	decision_ratio[26] 	0.0030089110056706
scalar tree_4_3_u09_r15_network.node[27].core_layer 	interests[27] 	12967
scalar tree_4_3_u09_r15_network.node[27].core_layer 	data[27] 	8800
scalar tree_4_3_u09_r15_network.node[27].content_store 	p_hit[27] 	0.3212770879926
scalar tree_4_3_u09_r15_network.node[27].content_store 	hits[27] 	4166
scalar tree_4_3_u09_r15_network.node[27].content_store 	misses[27] 	8801
scalar tree_4_3_u09_r15_network.node[27].content_store 	decision_yes[27] 	18
scalar tree_4_3_u09_r15_network.node[27].content_store 	decision_no[27] 	8782
scalar tree_4_3_u09_r15_network.node[27].content_store 	decision_ratio[27] 	0.0020454545454545
scalar tree_4_3_u09_r15_network.node[28].core_layer 	interests[28] 	12777
scalar tree_4_3_u09_r15_network.node[28].core_layer 	data[28] 	8876
scalar tree_4_3_u09_r15_network.node[28].content_store 	p_hit[28] 	0.30531423651874
scalar tree_4_3_u09_r15_network.node[28].content_store 	hits[28] 	3901
scalar tree_4_3_u09_r15_network.node[28].content_store 	misses[28] 	8876
scalar tree_4_3_u09_r15_network.node[28].content_store 	decision_yes[28] 	40
scalar tree_4_3_u09_r15_network.node[28].content_store 	decision_no[28] 	8836
scalar tree_4_3_u09_r15_network.node[28].content_store 	decision_ratio[28] 	0.0045065344749887
scalar tree_4_3_u09_r15_network.node[29].core_layer 	interests[29] 	12720
scalar tree_4_3_u09_r15_network.node[29].core_layer 	data[29] 	8761
scalar tree_4_3_u09_r15_network.node[29].content_store 	p_hit[29] 	0.31124213836478
scalar tree_4_3_u09_r15_network.node[29].content_store 	hits[29] 	3959
scalar tree_4_3_u09_r15_network.node[29].content_store 	misses[29] 	8761
scalar tree_4_3_u09_r15_network.node[29].content_store 	decision_yes[29] 	29
scalar tree_4_3_u09_r15_network.node[29].content_store 	decision_no[29] 	8732
scalar tree_4_3_u09_r15_network.node[29].content_store 	decision_ratio[29] 	0.0033101244150211
scalar tree_4_3_u09_r15_network.node[30].core_layer 	interests[30] 	12255
scalar tree_4_3_u09_r15_network.node[30].core_layer 	data[30] 	8735
scalar tree_4_3_u09_r15_network.node[30].content_store 	p_hit[30] 	0.28722970216238
scalar tree_4_3_u09_r15_network.node[30].content_store 	hits[30] 	3520
scalar tree_4_3_u09_r15_network.node[30].content_store 	misses[30] 	8735
scalar tree_4_3_u09_r15_network.node[30].content_store 	decision_yes[30] 	25
scalar tree_4_3_u09_r15_network.node[30].content_store 	decision_no[30] 	8710
scalar tree_4_3_u09_r15_network.node[30].content_store 	decision_ratio[30] 	0.0028620492272467
scalar tree_4_3_u09_r15_network.node[31].core_layer 	interests[31] 	12386
scalar tree_4_3_u09_r15_network.node[31].core_layer 	data[31] 	8819
scalar tree_4_3_u09_r15_network.node[31].content_store 	p_hit[31] 	0.28790569998385
scalar tree_4_3_u09_r15_network.node[31].content_store 	hits[31] 	3566
scalar tree_4_3_u09_r15_network.node[31].content_store 	misses[31] 	8820
scalar tree_4_3_u09_r15_network.node[31].content_store 	decision_yes[31] 	25
scalar tree_4_3_u09_r15_network.node[31].content_store 	decision_no[31] 	8794
scalar tree_4_3_u09_r15_network.node[31].content_store 	decision_ratio[31] 	0.0028347885247761
scalar tree_4_3_u09_r15_network.node[32].core_layer 	interests[32] 	12824
scalar tree_4_3_u09_r15_network.node[32].core_layer 	data[32] 	8827
scalar tree_4_3_u09_r15_network.node[32].content_store 	p_hit[32] 	0.31168122270742
scalar tree_4_3_u09_r15_network.node[32].content_store 	hits[32] 	3997
scalar tree_4_3_u09_r15_network.node[32].content_store 	misses[32] 	8827
scalar tree_4_3_u09_r15_network.node[32].content_store 	decision_yes[32] 	36
scalar tree_4_3_u09_r15_network.node[32].content_store 	decision_no[32] 	8791
scalar tree_4_3_u09_r15_network.node[32].content_store 	decision_ratio[32] 	0.0040783958309732
scalar tree_4_3_u09_r15_network.node[33].core_layer 	interests[33] 	12884
scalar tree_4_3_u09_r15_network.node[33].core_layer 	data[33] 	8780
scalar tree_4_3_u09_r15_network.node[33].content_store 	p_hit[33] 	0.3185346165787
scalar tree_4_3_u09_r15_network.node[33].content_store 	hits[33] 	4104
scalar tree_4_3_u09_r15_network.node[33].content_store 	misses[33] 	8780
scalar tree_4_3_u09_r15_network.node[33].content_store 	decision_yes[33] 	17
scalar tree_4_3_u09_r15_network.node[33].content_store 	decision_no[33] 	8763
scalar tree_4_3_u09_r15_network.node[33].content_store 	decision_ratio[33] 	0.0019362186788155
scalar tree_4_3_u09_r15_network.node[34].core_layer 	interests[34] 	12969
scalar tree_4_3_u09_r15_network.node[34].core_layer 	data[34] 	8942
scalar tree_4_3_u09_r15_network.node[34].content_store 	p_hit[34] 	0.31050967692189
scalar tree_4_3_u09_r15_network.node[34].content_store 	hits[34] 	4027
scalar tree_4_3_u09_r15_network.node[34].content_store 	misses[34] 	8942
scalar tree_4_3_u09_r15_network.node[34].content_store 	decision_yes[34] 	28
scalar tree_4_3_u09_r15_network.node[34].content_store 	decision_no[34] 	8914
scalar tree_4_3_u09_r15_network.node[34].content_store 	decision_ratio[34] 	0.0031312905390293
scalar tree_4_3_u09_r15_network.node[35].core_layer 	interests[35] 	12524
scalar tree_4_3_u09_r15_network.node[35].core_layer 	data[35] 	8913
scalar tree_4_3_u09_r15_network.node[35].content_store 	p_hit[35] 	0.28824656659214
scalar tree_4_3_u09_r15_network.node[35].content_store 	hits[35] 	3610
scalar tree_4_3_u09_r15_network.node[35].content_store 	misses[35] 	8914
scalar tree_4_3_u09_r15_network.node[35].content_store 	decision_yes[35] 	29
scalar tree_4_3_u09_r15_network.node[35].content_store 	decision_no[35] 	8884
scalar tree_4_3_u09_r15_network.node[35].content_store 	decision_ratio[35] 	0.0032536744081678
scalar tree_4_3_u09_r15_network.node[36].core_layer 	interests[36] 	12793
scalar tree_4_3_u09_r15_network.node[36].core_layer 	data[36] 	8931
scalar tree_4_3_u09_r15_network.node[36].content_store 	p_hit[36] 	0.30188384272649
scalar tree_4_3_u09_r15_network.node[36].content_store 	hits[36] 	3862
scalar tree_4_3_u09_r15_network.node[36].content_store 	misses[36] 	8931
scalar tree_4_3_u09_r15_network.node[36].content_store 	decision_yes[36] 	24
scalar tree_4_3_u09_r15_network.node[36].content_store 	decision_no[36] 	8907
scalar tree_4_3_u09_r15_network.node[36].content_store 	decision_ratio[36] 	0.0026872690628149
scalar tree_4_3_u09_r15_network.node[37].core_layer 	interests[37] 	12866
scalar tree_4_3_u09_r15_network.node[37].core_layer 	data[37] 	8820
scalar tree_4_3_u09_r15_network.node[37].content_store 	p_hit[37] 	0.31447225244831
scalar tree_4_3_u09_r15_network.node[37].content_store 	hits[37] 	4046
scalar tree_4_3_u09_r15_network.node[37].content_store 	misses[37] 	8820
scalar tree_4_3_u09_r15_network.node[37].content_store 	decision_yes[37] 	29
scalar tree_4_3_u09_r15_network.node[37].content_store 	decision_no[37] 	8791
scalar tree_4_3_u09_r15_network.node[37].content_store 	decision_ratio[37] 	0.0032879818594104
scalar tree_4_3_u09_r15_network.node[38].core_layer 	interests[38] 	12652
scalar tree_4_3_u09_r15_network.node[38].core_layer 	data[38] 	8772
scalar tree_4_3_u09_r15_network.node[38].content_store 	p_hit[38] 	0.30667088207398
scalar tree_4_3_u09_r15_network.node[38].content_store 	hits[38] 	3880
scalar tree_4_3_u09_r15_network.node[38].content_store 	misses[38] 	8772
scalar tree_4_3_u09_r15_network.node[38].content_store 	decision_yes[38] 	25
scalar tree_4_3_u09_r15_network.node[38].content_store 	decision_no[38] 	8747
scalar tree_4_3_u09_r15_network.node[38].content_store 	decision_ratio[38] 	0.0028499772001824
scalar tree_4_3_u09_r15_network.node[39].core_layer 	interests[39] 	12208
scalar tree_4_3_u09_r15_network.node[39].core_layer 	data[39] 	8626
scalar tree_4_3_u09_r15_network.node[39].content_store 	p_hit[39] 	0.29341415465269
scalar tree_4_3_u09_r15_network.node[39].content_store 	hits[39] 	3582
scalar tree_4_3_u09_r15_network.node[39].content_store 	misses[39] 	8626
scalar tree_4_3_u09_r15_network.node[39].content_store 	decision_yes[39] 	24
scalar tree_4_3_u09_r15_network.node[39].content_store 	decision_no[39] 	8602
scalar tree_4_3_u09_r15_network.node[39].content_store 	decision_ratio[39] 	0.0027822861117552
scalar tree_4_3_u09_r15_network.client[13] 	hdistance[13] 	2.6264473905018
scalar tree_4_3_u09_r15_network.client[13] 	downloads[13] 	11918
scalar tree_4_3_u09_r15_network.client[13] 	avg_time[13] 	0.004130388006
scalar tree_4_3_u09_r15_network.client[14] 	hdistance[14] 	2.6396727333445
scalar tree_4_3_u09_r15_network.client[14] 	downloads[14] 	11978
scalar tree_4_3_u09_r15_network.client[14] 	avg_time[14] 	0.004146432173
scalar tree_4_3_u09_r15_network.client[15] 	hdistance[15] 	2.5675358430452
scalar tree_4_3_u09_r15_network.client[15] 	downloads[15] 	11927
scalar tree_4_3_u09_r15_network.client[15] 	avg_time[15] 	0.004037726581
scalar tree_4_3_u09_r15_network.client[16] 	hdistance[16] 	2.6081345965371
scalar tree_4_3_u09_r15_network.client[16] 	downloads[16] 	12244
scalar tree_4_3_u09_r15_network.client[16] 	avg_time[16] 	0.004123649326
scalar tree_4_3_u09_r15_network.client[17] 	hdistance[17] 	2.617296222664
scalar tree_4_3_u09_r15_network.client[17] 	downloads[17] 	12072
scalar tree_4_3_u09_r15_network.client[17] 	avg_time[17] 	0.004139493306
scalar tree_4_3_u09_r15_network.client[18] 	hdistance[18] 	2.5414350682163
scalar tree_4_3_u09_r15_network.client[18] 	downloads[18] 	11874
scalar tree_4_3_u09_r15_network.client[18] 	avg_time[18] 	0.004010569166
scalar tree_4_3_u09_r15_network.client[19] 	hdistance[19] 	2.5464309319233
scalar tree_4_3_u09_r15_network.client[19] 	downloads[19] 	12104
scalar tree_4_3_u09_r15_network.client[19] 	avg_time[19] 	0.004004953092
scalar tree_4_3_u09_r15_network.client[20] 	hdistance[20] 	2.5557582290026
scalar tree_4_3_u09_r15_network.client[20] 	downloads[20] 	12061
scalar tree_4_3_u09_r15_network.client[20] 	avg_time[20] 	0.004037638972
scalar tree_4_3_u09_r15_network.client[21] 	hdistance[21] 	2.6166390728477
scalar tree_4_3_u09_r15_network.client[21] 	downloads[21] 	12080
scalar tree_4_3_u09_r15_network.client[21] 	avg_time[21] 	0.00414250305
scalar tree_4_3_u09_r15_network.client[22] 	hdistance[22] 	2.601677852349
scalar tree_4_3_u09_r15_network.client[22] 	downloads[22] 	11920
scalar tree_4_3_u09_r15_network.client[22] 	avg_time[22] 	0.004112580958
scalar tree_4_3_u09_r15_network.client[23] 	hdistance[23] 	2.5403690406613
scalar tree_4_3_u09_r15_network.client[23] 	downloads[23] 	11977
scalar tree_4_3_u09_r15_network.client[23] 	avg_time[23] 	0.003995822348
scalar tree_4_3_u09_r15_network.client[24] 	hdistance[24] 	2.5361159710072
scalar tree_4_3_u09_r15_network.client[24] 	downloads[24] 	12003
scalar tree_4_3_u09_r15_network.client[24] 	avg_time[24] 	0.003998959878
scalar tree_4_3_u09_r15_network.client[25] 	hdistance[25] 	2.5635059628054
scalar tree_4_3_u09_r15_network.client[25] 	downloads[25] 	11991
scalar tree_4_3_u09_r15_network.client[25] 	avg_time[25] 	0.004042701303
scalar tree_4_3_u09_r15_network.client[26] 	hdistance[26] 	2.6312074615579
scalar tree_4_3_u09_r15_network.client[26] 	downloads[26] 	11901
scalar tree_4_3_u09_r15_network.client[26] 	avg_time[26] 	0.0041272132
scalar tree_4_3_u09_r15_network.client[27] 	hdistance[27] 	2.5385499630511
scalar tree_4_3_u09_r15_network.client[27] 	downloads[27] 	12179
scalar tree_4_3_u09_r15_network.client[27] 	avg_time[27] 	0.003978806868
scalar tree_4_3_u09_r15_network.client[28] 	hdistance[28] 	2.5688743389574
scalar tree_4_3_u09_r15_network.client[28] 	downloads[28] 	11913
scalar tree_4_3_u09_r15_network.client[28] 	avg_time[28] 	0.004053138066
scalar tree_4_3_u09_r15_network.client[29] 	hdistance[29] 	2.5422311423315
scalar tree_4_3_u09_r15_network.client[29] 	downloads[29] 	11958
scalar tree_4_3_u09_r15_network.client[29] 	avg_time[29] 	0.003997320978
scalar tree_4_3_u09_r15_network.client[30] 	hdistance[30] 	2.6078694014232
scalar tree_4_3_u09_r15_network.client[30] 	downloads[30] 	11945
scalar tree_4_3_u09_r15_network.client[30] 	avg_time[30] 	0.004112680138
scalar tree_4_3_u09_r15_network.client[31] 	hdistance[31] 	2.6072884599384
scalar tree_4_3_u09_r15_network.client[31] 	downloads[31] 	12019
scalar tree_4_3_u09_r15_network.client[31] 	avg_time[31] 	0.004122802553
scalar tree_4_3_u09_r15_network.client[32] 	hdistance[32] 	2.552649116961
scalar tree_4_3_u09_r15_network.client[32] 	downloads[32] 	12004
scalar tree_4_3_u09_r15_network.client[32] 	avg_time[32] 	0.004014991974
scalar tree_4_3_u09_r15_network.client[33] 	hdistance[33] 	2.5308805291443
scalar tree_4_3_u09_r15_network.client[33] 	downloads[33] 	12095
scalar tree_4_3_u09_r15_network.client[33] 	avg_time[33] 	0.003978169789
scalar tree_4_3_u09_r15_network.client[34] 	hdistance[34] 	2.5365011509372
scalar tree_4_3_u09_r15_network.client[34] 	downloads[34] 	12164
scalar tree_4_3_u09_r15_network.client[34] 	avg_time[34] 	0.0039992627
scalar tree_4_3_u09_r15_network.client[35] 	hdistance[35] 	2.6191301477263
scalar tree_4_3_u09_r15_network.client[35] 	downloads[35] 	12117
scalar tree_4_3_u09_r15_network.client[35] 	avg_time[35] 	0.004141616207
scalar tree_4_3_u09_r15_network.client[36] 	hdistance[36] 	2.5753912395463
scalar tree_4_3_u09_r15_network.client[36] 	downloads[36] 	12077
scalar tree_4_3_u09_r15_network.client[36] 	avg_time[36] 	0.00404653172
scalar tree_4_3_u09_r15_network.client[37] 	hdistance[37] 	2.547105655996
scalar tree_4_3_u09_r15_network.client[37] 	downloads[37] 	12058
scalar tree_4_3_u09_r15_network.client[37] 	avg_time[37] 	0.004000992177
scalar tree_4_3_u09_r15_network.client[38] 	hdistance[38] 	2.5641411607292
scalar tree_4_3_u09_r15_network.client[38] 	downloads[38] 	11958
scalar tree_4_3_u09_r15_network.client[38] 	avg_time[38] 	0.004027928083
scalar tree_4_3_u09_r15_network.client[39] 	hdistance[39] 	2.6210084033614
scalar tree_4_3_u09_r15_network.client[39] 	downloads[39] 	11900
scalar tree_4_3_u09_r15_network.client[39] 	avg_time[39] 	0.004104702894
