version 2
run General-577-20160901-14:08:02-8710
attr a 0.9
attr cd ffc0.25
attr configname General
attr cr lru
attr datetime 20160901-14:08:02
attr experiment General
attr fsize 1
attr inifile hw5115/scenario_Y/omnetp.ini
attr iterationvars "$name=tree_4_3, $un=09, $rep=13, $cd=ffc0.25, $cr=lru, $fsize=1, $a=0.9, $sl=nrr, $ttl=1000, $variance=0.05"
attr iterationvars2 "$name=tree_4_3, $un=09, $rep=13, $cd=ffc0.25, $cr=lru, $fsize=1, $a=0.9, $sl=nrr, $ttl=1000, $variance=0.05, $repetition=0"
attr measurement "$name=tree_4_3, $un=09, $rep=13, $cd=ffc0.25, $cr=lru, $fsize=1, $a=0.9, $sl=nrr, $ttl=1000, $variance=0.05"
attr name tree_4_3
attr network networks.${name}_u${un}_r${rep}_network
attr processid 8710
attr rep 13
attr repetition 0
attr replication #0
attr resultdir results
attr runnumber 577
attr seedset 13
attr sl nrr
attr ttl 1000
attr un 09
attr variance 0.05

scalar . 	a 	0.9
scalar . 	fsize 	1
scalar . 	rep 	13
scalar . 	ttl 	1000
scalar . 	un 	09
scalar . 	variance 	0.05
scalar tree_4_3_u09_r13_network.content_distribution 	repo-0 	0
scalar tree_4_3_u09_r13_network.content_distribution 	client-0 	13
scalar tree_4_3_u09_r13_network.content_distribution 	client-1 	14
scalar tree_4_3_u09_r13_network.content_distribution 	client-2 	15
scalar tree_4_3_u09_r13_network.content_distribution 	client-3 	16
scalar tree_4_3_u09_r13_network.content_distribution 	client-4 	17
scalar tree_4_3_u09_r13_network.content_distribution 	client-5 	18
scalar tree_4_3_u09_r13_network.content_distribution 	client-6 	19
scalar tree_4_3_u09_r13_network.content_distribution 	client-7 	20
scalar tree_4_3_u09_r13_network.content_distribution 	client-8 	21
scalar tree_4_3_u09_r13_network.content_distribution 	client-9 	22
scalar tree_4_3_u09_r13_network.content_distribution 	client-10 	23
scalar tree_4_3_u09_r13_network.content_distribution 	client-11 	24
scalar tree_4_3_u09_r13_network.content_distribution 	client-12 	25
scalar tree_4_3_u09_r13_network.content_distribution 	client-13 	26
scalar tree_4_3_u09_r13_network.content_distribution 	client-14 	27
scalar tree_4_3_u09_r13_network.content_distribution 	client-15 	28
scalar tree_4_3_u09_r13_network.content_distribution 	client-16 	29
scalar tree_4_3_u09_r13_network.content_distribution 	client-17 	30
scalar tree_4_3_u09_r13_network.content_distribution 	client-18 	31
scalar tree_4_3_u09_r13_network.content_distribution 	client-19 	32
scalar tree_4_3_u09_r13_network.content_distribution 	client-20 	33
scalar tree_4_3_u09_r13_network.content_distribution 	client-21 	34
scalar tree_4_3_u09_r13_network.content_distribution 	client-22 	35
scalar tree_4_3_u09_r13_network.content_distribution 	client-23 	36
scalar tree_4_3_u09_r13_network.content_distribution 	client-24 	37
scalar tree_4_3_u09_r13_network.content_distribution 	client-25 	38
scalar tree_4_3_u09_r13_network.content_distribution 	client-26 	39
scalar tree_4_3_u09_r13_network.content_distribution 	repo-0_card 	100000
scalar tree_4_3_u09_r13_network.content_distribution 	repo-0_price 	0
scalar tree_4_3_u09_r13_network.statistics 	stabilization_time 	2080.1
scalar tree_4_3_u09_r13_network.statistics 	p_hit 	0.24561790779179
scalar tree_4_3_u09_r13_network.statistics 	interests 	24538.2
scalar tree_4_3_u09_r13_network.statistics 	data 	16434.775
scalar tree_4_3_u09_r13_network.statistics 	hdistance 	2.5841944510603
scalar tree_4_3_u09_r13_network.statistics 	avg_time 	0.004056372907
scalar tree_4_3_u09_r13_network.statistics 	downloads 	324135
scalar tree_4_3_u09_r13_network.statistics 	total_cost 	0
scalar tree_4_3_u09_r13_network.statistics 	total_replicas 	100000
scalar tree_4_3_u09_r13_network.statistics 	inner_hit 	0.44403720671942
scalar tree_4_3_u09_r13_network.node[0].core_layer 	interests[0] 	183037
scalar tree_4_3_u09_r13_network.node[0].core_layer 	repo_load[0] 	180207
scalar tree_4_3_u09_r13_network.node[0].core_layer 	data[0] 	0
scalar tree_4_3_u09_r13_network.node[0].core_layer 	repo_int[0] 	180207
scalar tree_4_3_u09_r13_network.node[0].content_store 	p_hit[0] 	0.015461354808044
scalar tree_4_3_u09_r13_network.node[0].content_store 	hits[0] 	2830
scalar tree_4_3_u09_r13_network.node[0].content_store 	misses[0] 	180207
scalar tree_4_3_u09_r13_network.node[0].content_store 	decision_yes[0] 	176
scalar tree_4_3_u09_r13_network.node[0].content_store 	decision_no[0] 	180031
scalar tree_4_3_u09_r13_network.node[0].content_store 	decision_ratio[0] 	0.00097665462495907
scalar tree_4_3_u09_r13_network.node[1].core_layer 	interests[1] 	100685
scalar tree_4_3_u09_r13_network.node[1].core_layer 	data[1] 	98460
scalar tree_4_3_u09_r13_network.node[1].content_store 	p_hit[1] 	0.022098624422704
scalar tree_4_3_u09_r13_network.node[1].content_store 	hits[1] 	2225
scalar tree_4_3_u09_r13_network.node[1].content_store 	misses[1] 	98460
scalar tree_4_3_u09_r13_network.node[1].content_store 	decision_yes[1] 	121
scalar tree_4_3_u09_r13_network.node[1].content_store 	decision_no[1] 	98338
scalar tree_4_3_u09_r13_network.node[1].content_store 	decision_ratio[1] 	0.0012289379335561
scalar tree_4_3_u09_r13_network.node[2].core_layer 	interests[2] 	91951
scalar tree_4_3_u09_r13_network.node[2].core_layer 	data[2] 	88425
scalar tree_4_3_u09_r13_network.node[2].content_store 	p_hit[2] 	0.038324759926483
scalar tree_4_3_u09_r13_network.node[2].content_store 	hits[2] 	3524
scalar tree_4_3_u09_r13_network.node[2].content_store 	misses[2] 	88427
scalar tree_4_3_u09_r13_network.node[2].content_store 	decision_yes[2] 	118
scalar tree_4_3_u09_r13_network.node[2].content_store 	decision_no[2] 	88307
scalar tree_4_3_u09_r13_network.node[2].content_store 	decision_ratio[2] 	0.0013344642352276
scalar tree_4_3_u09_r13_network.node[3].core_layer 	interests[3] 	12033
scalar tree_4_3_u09_r13_network.node[3].core_layer 	data[3] 	9236
scalar tree_4_3_u09_r13_network.node[3].content_store 	p_hit[3] 	0.23244411202526
scalar tree_4_3_u09_r13_network.node[3].content_store 	hits[3] 	2797
scalar tree_4_3_u09_r13_network.node[3].content_store 	misses[3] 	9236
scalar tree_4_3_u09_r13_network.node[3].content_store 	decision_yes[3] 	49
scalar tree_4_3_u09_r13_network.node[3].content_store 	decision_no[3] 	9187
scalar tree_4_3_u09_r13_network.node[3].content_store 	decision_ratio[3] 	0.0053053269813772
scalar tree_4_3_u09_r13_network.node[4].core_layer 	interests[4] 	41163
scalar tree_4_3_u09_r13_network.node[4].core_layer 	data[4] 	38495
scalar tree_4_3_u09_r13_network.node[4].content_store 	p_hit[4] 	0.06479119597697
scalar tree_4_3_u09_r13_network.node[4].content_store 	hits[4] 	2667
scalar tree_4_3_u09_r13_network.node[4].content_store 	misses[4] 	38496
scalar tree_4_3_u09_r13_network.node[4].content_store 	decision_yes[4] 	63
scalar tree_4_3_u09_r13_network.node[4].content_store 	decision_no[4] 	38432
scalar tree_4_3_u09_r13_network.node[4].content_store 	decision_ratio[4] 	0.0016365761787245
scalar tree_4_3_u09_r13_network.node[5].core_layer 	interests[5] 	30265
scalar tree_4_3_u09_r13_network.node[5].core_layer 	data[5] 	26369
scalar tree_4_3_u09_r13_network.node[5].content_store 	p_hit[5] 	0.12869651412523
scalar tree_4_3_u09_r13_network.node[5].content_store 	hits[5] 	3895
scalar tree_4_3_u09_r13_network.node[5].content_store 	misses[5] 	26370
scalar tree_4_3_u09_r13_network.node[5].content_store 	decision_yes[5] 	78
scalar tree_4_3_u09_r13_network.node[5].content_store 	decision_no[5] 	26291
scalar tree_4_3_u09_r13_network.node[5].content_store 	decision_ratio[5] 	0.0029580188858129
scalar tree_4_3_u09_r13_network.node[6].core_layer 	interests[6] 	11938
scalar tree_4_3_u09_r13_network.node[6].core_layer 	data[6] 	9230
scalar tree_4_3_u09_r13_network.node[6].content_store 	p_hit[6] 	0.22683866644329
scalar tree_4_3_u09_r13_network.node[6].content_store 	hits[6] 	2708
scalar tree_4_3_u09_r13_network.node[6].content_store 	misses[6] 	9230
scalar tree_4_3_u09_r13_network.node[6].content_store 	decision_yes[6] 	44
scalar tree_4_3_u09_r13_network.node[6].content_store 	decision_no[6] 	9186
scalar tree_4_3_u09_r13_network.node[6].content_store 	decision_ratio[6] 	0.0047670639219935
scalar tree_4_3_u09_r13_network.node[7].core_layer 	interests[7] 	42329
scalar tree_4_3_u09_r13_network.node[7].core_layer 	data[7] 	39507
scalar tree_4_3_u09_r13_network.node[7].content_store 	p_hit[7] 	0.066668241631033
scalar tree_4_3_u09_r13_network.node[7].content_store 	hits[7] 	2822
scalar tree_4_3_u09_r13_network.node[7].content_store 	misses[7] 	39507
scalar tree_4_3_u09_r13_network.node[7].content_store 	decision_yes[7] 	87
scalar tree_4_3_u09_r13_network.node[7].content_store 	decision_no[7] 	39420
scalar tree_4_3_u09_r13_network.node[7].content_store 	decision_ratio[7] 	0.0022021413926646
scalar tree_4_3_u09_r13_network.node[8].core_layer 	interests[8] 	27570
scalar tree_4_3_u09_r13_network.node[8].core_layer 	data[8] 	24407
scalar tree_4_3_u09_r13_network.node[8].content_store 	p_hit[8] 	0.11476242292347
scalar tree_4_3_u09_r13_network.node[8].content_store 	hits[8] 	3164
scalar tree_4_3_u09_r13_network.node[8].content_store 	misses[8] 	24406
scalar tree_4_3_u09_r13_network.node[8].content_store 	decision_yes[8] 	58
scalar tree_4_3_u09_r13_network.node[8].content_store 	decision_no[8] 	24349
scalar tree_4_3_u09_r13_network.node[8].content_store 	decision_ratio[8] 	0.0023763674355718
scalar tree_4_3_u09_r13_network.node[9].core_layer 	interests[9] 	13980
scalar tree_4_3_u09_r13_network.node[9].core_layer 	data[9] 	10751
scalar tree_4_3_u09_r13_network.node[9].content_store 	p_hit[9] 	0.23097281831187
scalar tree_4_3_u09_r13_network.node[9].content_store 	hits[9] 	3229
scalar tree_4_3_u09_r13_network.node[9].content_store 	misses[9] 	10751
scalar tree_4_3_u09_r13_network.node[9].content_store 	decision_yes[9] 	66
scalar tree_4_3_u09_r13_network.node[9].content_store 	decision_no[9] 	10685
scalar tree_4_3_u09_r13_network.node[9].content_store 	decision_ratio[9] 	0.0061389638173193
scalar tree_4_3_u09_r13_network.node[10].core_layer 	interests[10] 	42821
scalar tree_4_3_u09_r13_network.node[10].core_layer 	data[10] 	39778
scalar tree_4_3_u09_r13_network.node[10].content_store 	p_hit[10] 	0.071039910324374
scalar tree_4_3_u09_r13_network.node[10].content_store 	hits[10] 	3042
scalar tree_4_3_u09_r13_network.node[10].content_store 	misses[10] 	39779
scalar tree_4_3_u09_r13_network.node[10].content_store 	decision_yes[10] 	96
scalar tree_4_3_u09_r13_network.node[10].content_store 	decision_no[10] 	39682
scalar tree_4_3_u09_r13_network.node[10].content_store 	decision_ratio[10] 	0.0024133943385791
scalar tree_4_3_u09_r13_network.node[11].core_layer 	interests[11] 	29160
scalar tree_4_3_u09_r13_network.node[11].core_layer 	data[11] 	25965
scalar tree_4_3_u09_r13_network.node[11].content_store 	p_hit[11] 	0.10956790123457
scalar tree_4_3_u09_r13_network.node[11].content_store 	hits[11] 	3195
scalar tree_4_3_u09_r13_network.node[11].content_store 	misses[11] 	25965
scalar tree_4_3_u09_r13_network.node[11].content_store 	decision_yes[11] 	56
scalar tree_4_3_u09_r13_network.node[11].content_store 	decision_no[11] 	25909
scalar tree_4_3_u09_r13_network.node[11].content_store 	decision_ratio[11] 	0.002156749470441
scalar tree_4_3_u09_r13_network.node[12].core_layer 	interests[12] 	11626
scalar tree_4_3_u09_r13_network.node[12].core_layer 	data[12] 	8999
scalar tree_4_3_u09_r13_network.node[12].content_store 	p_hit[12] 	0.22595905728539
scalar tree_4_3_u09_r13_network.node[12].content_store 	hits[12] 	2627
scalar tree_4_3_u09_r13_network.node[12].content_store 	misses[12] 	8999
scalar tree_4_3_u09_r13_network.node[12].content_store 	decision_yes[12] 	39
scalar tree_4_3_u09_r13_network.node[12].content_store 	decision_no[12] 	8960
scalar tree_4_3_u09_r13_network.node[12].content_store 	decision_ratio[12] 	0.0043338148683187
scalar tree_4_3_u09_r13_network.node[13].core_layer 	interests[13] 	12297
scalar tree_4_3_u09_r13_network.node[13].core_layer 	data[13] 	8660
scalar tree_4_3_u09_r13_network.node[13].content_store 	p_hit[13] 	0.29576319427503
scalar tree_4_3_u09_r13_network.node[13].content_store 	hits[13] 	3637
scalar tree_4_3_u09_r13_network.node[13].content_store 	misses[13] 	8660
scalar tree_4_3_u09_r13_network.node[13].content_store 	decision_yes[13] 	25
scalar tree_4_3_u09_r13_network.node[13].content_store 	decision_no[13] 	8635
scalar tree_4_3_u09_r13_network.node[13].content_store 	decision_ratio[13] 	0.0028868360277136
scalar tree_4_3_u09_r13_network.node[14].core_layer 	interests[14] 	13111
scalar tree_4_3_u09_r13_network.node[14].core_layer 	data[14] 	8931
scalar tree_4_3_u09_r13_network.node[14].content_store 	p_hit[14] 	0.31881626115476
scalar tree_4_3_u09_r13_network.node[14].content_store 	hits[14] 	4180
scalar tree_4_3_u09_r13_network.node[14].content_store 	misses[14] 	8931
scalar tree_4_3_u09_r13_network.node[14].content_store 	decision_yes[14] 	26
scalar tree_4_3_u09_r13_network.node[14].content_store 	decision_no[14] 	8905
scalar tree_4_3_u09_r13_network.node[14].content_store 	decision_ratio[14] 	0.0029112081513828
scalar tree_4_3_u09_r13_network.node[15].core_layer 	interests[15] 	12649
scalar tree_4_3_u09_r13_network.node[15].core_layer 	data[15] 	8636
scalar tree_4_3_u09_r13_network.node[15].content_store 	p_hit[15] 	0.31725828128706
scalar tree_4_3_u09_r13_network.node[15].content_store 	hits[15] 	4013
scalar tree_4_3_u09_r13_network.node[15].content_store 	misses[15] 	8636
scalar tree_4_3_u09_r13_network.node[15].content_store 	decision_yes[15] 	28
scalar tree_4_3_u09_r13_network.node[15].content_store 	decision_no[15] 	8608
scalar tree_4_3_u09_r13_network.node[15].content_store 	decision_ratio[15] 	0.0032422417786012
scalar tree_4_3_u09_r13_network.node[16].core_layer 	interests[16] 	12884
scalar tree_4_3_u09_r13_network.node[16].core_layer 	data[16] 	8865
scalar tree_4_3_u09_r13_network.node[16].content_store 	p_hit[16] 	0.31193728655697
scalar tree_4_3_u09_r13_network.node[16].content_store 	hits[16] 	4019
scalar tree_4_3_u09_r13_network.node[16].content_store 	misses[16] 	8865
scalar tree_4_3_u09_r13_network.node[16].content_store 	decision_yes[16] 	24
scalar tree_4_3_u09_r13_network.node[16].content_store 	decision_no[16] 	8841
scalar tree_4_3_u09_r13_network.node[16].content_store 	decision_ratio[16] 	0.0027072758037225
scalar tree_4_3_u09_r13_network.node[17].core_layer 	interests[17] 	12553
scalar tree_4_3_u09_r13_network.node[17].core_layer 	data[17] 	8693
scalar tree_4_3_u09_r13_network.node[17].content_store 	p_hit[17] 	0.30741655381184
scalar tree_4_3_u09_r13_network.node[17].content_store 	hits[17] 	3859
scalar tree_4_3_u09_r13_network.node[17].content_store 	misses[17] 	8694
scalar tree_4_3_u09_r13_network.node[17].content_store 	decision_yes[17] 	23
scalar tree_4_3_u09_r13_network.node[17].content_store 	decision_no[17] 	8670
scalar tree_4_3_u09_r13_network.node[17].content_store 	decision_ratio[17] 	0.0026458069711262
scalar tree_4_3_u09_r13_network.node[18].core_layer 	interests[18] 	12797
scalar tree_4_3_u09_r13_network.node[18].core_layer 	data[18] 	8745
scalar tree_4_3_u09_r13_network.node[18].content_store 	p_hit[18] 	0.31663671172931
scalar tree_4_3_u09_r13_network.node[18].content_store 	hits[18] 	4052
scalar tree_4_3_u09_r13_network.node[18].content_store 	misses[18] 	8745
scalar tree_4_3_u09_r13_network.node[18].content_store 	decision_yes[18] 	28
scalar tree_4_3_u09_r13_network.node[18].content_store 	decision_no[18] 	8717
scalar tree_4_3_u09_r13_network.node[18].content_store 	decision_ratio[18] 	0.003201829616924
scalar tree_4_3_u09_r13_network.node[19].core_layer 	interests[19] 	12532
scalar tree_4_3_u09_r13_network.node[19].core_layer 	data[19] 	8663
scalar tree_4_3_u09_r13_network.node[19].content_store 	p_hit[19] 	0.30872965209065
scalar tree_4_3_u09_r13_network.node[19].content_store 	hits[19] 	3869
scalar tree_4_3_u09_r13_network.node[19].content_store 	misses[19] 	8663
scalar tree_4_3_u09_r13_network.node[19].content_store 	decision_yes[19] 	22
scalar tree_4_3_u09_r13_network.node[19].content_store 	decision_no[19] 	8641
scalar tree_4_3_u09_r13_network.node[19].content_store 	decision_ratio[19] 	0.0025395359575205
scalar tree_4_3_u09_r13_network.node[20].core_layer 	interests[20] 	13090
scalar tree_4_3_u09_r13_network.node[20].core_layer 	data[20] 	8956
scalar tree_4_3_u09_r13_network.node[20].content_store 	p_hit[20] 	0.31581359816654
scalar tree_4_3_u09_r13_network.node[20].content_store 	hits[20] 	4134
scalar tree_4_3_u09_r13_network.node[20].content_store 	misses[20] 	8956
scalar tree_4_3_u09_r13_network.node[20].content_store 	decision_yes[20] 	28
scalar tree_4_3_u09_r13_network.node[20].content_store 	decision_no[20] 	8928
scalar tree_4_3_u09_r13_network.node[20].content_store 	decision_ratio[20] 	0.0031263957123716
scalar tree_4_3_u09_r13_network.node[21].core_layer 	interests[21] 	12281
scalar tree_4_3_u09_r13_network.node[21].core_layer 	data[21] 	8808
scalar tree_4_3_u09_r13_network.node[21].content_store 	p_hit[21] 	0.28279456070353
scalar tree_4_3_u09_r13_network.node[21].content_store 	hits[21] 	3473
scalar tree_4_3_u09_r13_network.node[21].content_store 	misses[21] 	8808
scalar tree_4_3_u09_r13_network.node[21].content_store 	decision_yes[21] 	26
scalar tree_4_3_u09_r13_network.node[21].content_store 	decision_no[21] 	8782
scalar tree_4_3_u09_r13_network.node[21].content_store 	decision_ratio[21] 	0.0029518619436876
scalar tree_4_3_u09_r13_network.node[22].core_layer 	interests[22] 	12255
scalar tree_4_3_u09_r13_network.node[22].core_layer 	data[22] 	8529
scalar tree_4_3_u09_r13_network.node[22].content_store 	p_hit[22] 	0.30403916768666
scalar tree_4_3_u09_r13_network.node[22].content_store 	hits[22] 	3726
scalar tree_4_3_u09_r13_network.node[22].content_store 	misses[22] 	8529
scalar tree_4_3_u09_r13_network.node[22].content_store 	decision_yes[22] 	22
scalar tree_4_3_u09_r13_network.node[22].content_store 	decision_no[22] 	8507
scalar tree_4_3_u09_r13_network.node[22].content_store 	decision_ratio[22] 	0.0025794348692696
scalar tree_4_3_u09_r13_network.node[23].core_layer 	interests[23] 	12944
scalar tree_4_3_u09_r13_network.node[23].core_layer 	data[23] 	8915
scalar tree_4_3_u09_r13_network.node[23].content_store 	p_hit[23] 	0.31126390605686
scalar tree_4_3_u09_r13_network.node[23].content_store 	hits[23] 	4029
scalar tree_4_3_u09_r13_network.node[23].content_store 	misses[23] 	8915
scalar tree_4_3_u09_r13_network.node[23].content_store 	decision_yes[23] 	30
scalar tree_4_3_u09_r13_network.node[23].content_store 	decision_no[23] 	8885
scalar tree_4_3_u09_r13_network.node[23].content_store 	decision_ratio[23] 	0.0033651149747616
scalar tree_4_3_u09_r13_network.node[24].core_layer 	interests[24] 	12914
scalar tree_4_3_u09_r13_network.node[24].core_layer 	data[24] 	8798
scalar tree_4_3_u09_r13_network.node[24].content_store 	p_hit[24] 	0.31864643023076
scalar tree_4_3_u09_r13_network.node[24].content_store 	hits[24] 	4115
scalar tree_4_3_u09_r13_network.node[24].content_store 	misses[24] 	8799
scalar tree_4_3_u09_r13_network.node[24].content_store 	decision_yes[24] 	35
scalar tree_4_3_u09_r13_network.node[24].content_store 	decision_no[24] 	8763
scalar tree_4_3_u09_r13_network.node[24].content_store 	decision_ratio[24] 	0.0039781768583769
scalar tree_4_3_u09_r13_network.node[25].core_layer 	interests[25] 	12887
scalar tree_4_3_u09_r13_network.node[25].core_layer 	data[25] 	8804
scalar tree_4_3_u09_r13_network.node[25].content_store 	p_hit[25] 	0.31683091487546
scalar tree_4_3_u09_r13_network.node[25].content_store 	hits[25] 	4083
scalar tree_4_3_u09_r13_network.node[25].content_store 	misses[25] 	8804
scalar tree_4_3_u09_r13_network.node[25].content_store 	decision_yes[25] 	20
scalar tree_4_3_u09_r13_network.node[25].content_store 	decision_no[25] 	8784
scalar tree_4_3_u09_r13_network.node[25].content_store 	decision_ratio[25] 	0.0022716946842344
scalar tree_4_3_u09_r13_network.node[26].core_layer 	interests[26] 	12409
scalar tree_4_3_u09_r13_network.node[26].core_layer 	data[26] 	8795
scalar tree_4_3_u09_r13_network.node[26].content_store 	p_hit[26] 	0.29132081553711
scalar tree_4_3_u09_r13_network.node[26].content_store 	hits[26] 	3615
scalar tree_4_3_u09_r13_network.node[26].content_store 	misses[26] 	8794
scalar tree_4_3_u09_r13_network.node[26].content_store 	decision_yes[26] 	23
scalar tree_4_3_u09_r13_network.node[26].content_store 	decision_no[26] 	8772
scalar tree_4_3_u09_r13_network.node[26].content_store 	decision_ratio[26] 	0.0026151222285389
scalar tree_4_3_u09_r13_network.node[27].core_layer 	interests[27] 	13068
scalar tree_4_3_u09_r13_network.node[27].core_layer 	data[27] 	9033
scalar tree_4_3_u09_r13_network.node[27].content_store 	p_hit[27] 	0.30876951331497
scalar tree_4_3_u09_r13_network.node[27].content_store 	hits[27] 	4035
scalar tree_4_3_u09_r13_network.node[27].content_store 	misses[27] 	9033
scalar tree_4_3_u09_r13_network.node[27].content_store 	decision_yes[27] 	29
scalar tree_4_3_u09_r13_network.node[27].content_store 	decision_no[27] 	9004
scalar tree_4_3_u09_r13_network.node[27].content_store 	decision_ratio[27] 	0.0032104505701317
scalar tree_4_3_u09_r13_network.node[28].core_layer 	interests[28] 	12876
scalar tree_4_3_u09_r13_network.node[28].core_layer 	data[28] 	8823
scalar tree_4_3_u09_r13_network.node[28].content_store 	p_hit[28] 	0.31477166821994
scalar tree_4_3_u09_r13_network.node[28].content_store 	hits[28] 	4053
scalar tree_4_3_u09_r13_network.node[28].content_store 	misses[28] 	8823
scalar tree_4_3_u09_r13_network.node[28].content_store 	decision_yes[28] 	28
scalar tree_4_3_u09_r13_network.node[28].content_store 	decision_no[28] 	8795
scalar tree_4_3_u09_r13_network.node[28].content_store 	decision_ratio[28] 	0.003173523744758
scalar tree_4_3_u09_r13_network.node[29].core_layer 	interests[29] 	12820
scalar tree_4_3_u09_r13_network.node[29].core_layer 	data[29] 	8876
scalar tree_4_3_u09_r13_network.node[29].content_store 	p_hit[29] 	0.30756630265211
scalar tree_4_3_u09_r13_network.node[29].content_store 	hits[29] 	3943
scalar tree_4_3_u09_r13_network.node[29].content_store 	misses[29] 	8877
scalar tree_4_3_u09_r13_network.node[29].content_store 	decision_yes[29] 	26
scalar tree_4_3_u09_r13_network.node[29].content_store 	decision_no[29] 	8850
scalar tree_4_3_u09_r13_network.node[29].content_store 	decision_ratio[29] 	0.0029292474087427
scalar tree_4_3_u09_r13_network.node[30].core_layer 	interests[30] 	12447
scalar tree_4_3_u09_r13_network.node[30].core_layer 	data[30] 	8842
scalar tree_4_3_u09_r13_network.node[30].content_store 	p_hit[30] 	0.28962802281674
scalar tree_4_3_u09_r13_network.node[30].content_store 	hits[30] 	3605
scalar tree_4_3_u09_r13_network.node[30].content_store 	misses[30] 	8842
scalar tree_4_3_u09_r13_network.node[30].content_store 	decision_yes[30] 	20
scalar tree_4_3_u09_r13_network.node[30].content_store 	decision_no[30] 	8822
scalar tree_4_3_u09_r13_network.node[30].content_store 	decision_ratio[30] 	0.002261931689663
scalar tree_4_3_u09_r13_network.node[31].core_layer 	interests[31] 	12309
scalar tree_4_3_u09_r13_network.node[31].core_layer 	data[31] 	8594
scalar tree_4_3_u09_r13_network.node[31].content_store 	p_hit[31] 	0.30181168250873
scalar tree_4_3_u09_r13_network.node[31].content_store 	hits[31] 	3715
scalar tree_4_3_u09_r13_network.node[31].content_store 	misses[31] 	8594
scalar tree_4_3_u09_r13_network.node[31].content_store 	decision_yes[31] 	45
scalar tree_4_3_u09_r13_network.node[31].content_store 	decision_no[31] 	8549
scalar tree_4_3_u09_r13_network.node[31].content_store 	decision_ratio[31] 	0.0052362113102164
scalar tree_4_3_u09_r13_network.node[32].core_layer 	interests[32] 	12857
scalar tree_4_3_u09_r13_network.node[32].core_layer 	data[32] 	8798
scalar tree_4_3_u09_r13_network.node[32].content_store 	p_hit[32] 	0.31570350781675
scalar tree_4_3_u09_r13_network.node[32].content_store 	hits[32] 	4059
scalar tree_4_3_u09_r13_network.node[32].content_store 	misses[32] 	8798
scalar tree_4_3_u09_r13_network.node[32].content_store 	decision_yes[32] 	29
scalar tree_4_3_u09_r13_network.node[32].content_store 	decision_no[32] 	8769
scalar tree_4_3_u09_r13_network.node[32].content_store 	decision_ratio[32] 	0.0032962036826551
scalar tree_4_3_u09_r13_network.node[33].core_layer 	interests[33] 	12910
scalar tree_4_3_u09_r13_network.node[33].core_layer 	data[33] 	8924
scalar tree_4_3_u09_r13_network.node[33].content_store 	p_hit[33] 	0.30875290472502
scalar tree_4_3_u09_r13_network.node[33].content_store 	hits[33] 	3986
scalar tree_4_3_u09_r13_network.node[33].content_store 	misses[33] 	8924
scalar tree_4_3_u09_r13_network.node[33].content_store 	decision_yes[33] 	31
scalar tree_4_3_u09_r13_network.node[33].content_store 	decision_no[33] 	8893
scalar tree_4_3_u09_r13_network.node[33].content_store 	decision_ratio[33] 	0.0034737785746302
scalar tree_4_3_u09_r13_network.node[34].core_layer 	interests[34] 	12893
scalar tree_4_3_u09_r13_network.node[34].core_layer 	data[34] 	8904
scalar tree_4_3_u09_r13_network.node[34].content_store 	p_hit[34] 	0.30939269370976
scalar tree_4_3_u09_r13_network.node[34].content_store 	hits[34] 	3989
scalar tree_4_3_u09_r13_network.node[34].content_store 	misses[34] 	8904
scalar tree_4_3_u09_r13_network.node[34].content_store 	decision_yes[34] 	31
scalar tree_4_3_u09_r13_network.node[34].content_store 	decision_no[34] 	8873
scalar tree_4_3_u09_r13_network.node[34].content_store 	decision_ratio[34] 	0.00348158131177
scalar tree_4_3_u09_r13_network.node[35].core_layer 	interests[35] 	12503
scalar tree_4_3_u09_r13_network.node[35].core_layer 	data[35] 	8768
scalar tree_4_3_u09_r13_network.node[35].content_store 	p_hit[35] 	0.29872830520675
scalar tree_4_3_u09_r13_network.node[35].content_store 	hits[35] 	3735
scalar tree_4_3_u09_r13_network.node[35].content_store 	misses[35] 	8768
scalar tree_4_3_u09_r13_network.node[35].content_store 	decision_yes[35] 	20
scalar tree_4_3_u09_r13_network.node[35].content_store 	decision_no[35] 	8748
scalar tree_4_3_u09_r13_network.node[35].content_store 	decision_ratio[35] 	0.0022810218978102
scalar tree_4_3_u09_r13_network.node[36].core_layer 	interests[36] 	12772
scalar tree_4_3_u09_r13_network.node[36].core_layer 	data[36] 	8850
scalar tree_4_3_u09_r13_network.node[36].content_store 	p_hit[36] 	0.30699968681491
scalar tree_4_3_u09_r13_network.node[36].content_store 	hits[36] 	3921
scalar tree_4_3_u09_r13_network.node[36].content_store 	misses[36] 	8851
scalar tree_4_3_u09_r13_network.node[36].content_store 	decision_yes[36] 	35
scalar tree_4_3_u09_r13_network.node[36].content_store 	decision_no[36] 	8815
scalar tree_4_3_u09_r13_network.node[36].content_store 	decision_ratio[36] 	0.003954802259887
scalar tree_4_3_u09_r13_network.node[37].core_layer 	interests[37] 	12963
scalar tree_4_3_u09_r13_network.node[37].core_layer 	data[37] 	8960
scalar tree_4_3_u09_r13_network.node[37].content_store 	p_hit[37] 	0.3088019748515
scalar tree_4_3_u09_r13_network.node[37].content_store 	hits[37] 	4003
scalar tree_4_3_u09_r13_network.node[37].content_store 	misses[37] 	8960
scalar tree_4_3_u09_r13_network.node[37].content_store 	decision_yes[37] 	31
scalar tree_4_3_u09_r13_network.node[37].content_store 	decision_no[37] 	8929
scalar tree_4_3_u09_r13_network.node[37].content_store 	decision_ratio[37] 	0.0034598214285714
scalar tree_4_3_u09_r13_network.node[38].core_layer 	interests[38] 	12719
scalar tree_4_3_u09_r13_network.node[38].core_layer 	data[38] 	8875
scalar tree_4_3_u09_r13_network.node[38].content_store 	p_hit[38] 	0.30222501769007
scalar tree_4_3_u09_r13_network.node[38].content_store 	hits[38] 	3844
scalar tree_4_3_u09_r13_network.node[38].content_store 	misses[38] 	8875
scalar tree_4_3_u09_r13_network.node[38].content_store 	decision_yes[38] 	26
scalar tree_4_3_u09_r13_network.node[38].content_store 	decision_no[38] 	8849
scalar tree_4_3_u09_r13_network.node[38].content_store 	decision_ratio[38] 	0.0029295774647887
scalar tree_4_3_u09_r13_network.node[39].core_layer 	interests[39] 	12230
scalar tree_4_3_u09_r13_network.node[39].core_layer 	data[39] 	8724
scalar tree_4_3_u09_r13_network.node[39].content_store 	p_hit[39] 	0.28667211774325
scalar tree_4_3_u09_r13_network.node[39].content_store 	hits[39] 	3506
scalar tree_4_3_u09_r13_network.node[39].content_store 	misses[39] 	8724
scalar tree_4_3_u09_r13_network.node[39].content_store 	decision_yes[39] 	35
scalar tree_4_3_u09_r13_network.node[39].content_store 	decision_no[39] 	8689
scalar tree_4_3_u09_r13_network.node[39].content_store 	decision_ratio[39] 	0.0040119211370931
scalar tree_4_3_u09_r13_network.client[13] 	hdistance[13] 	2.6404749873674
scalar tree_4_3_u09_r13_network.client[13] 	downloads[13] 	11874
scalar tree_4_3_u09_r13_network.client[13] 	avg_time[13] 	0.004128681558
scalar tree_4_3_u09_r13_network.client[14] 	hdistance[14] 	2.5607267297163
scalar tree_4_3_u09_r13_network.client[14] 	downloads[14] 	12054
scalar tree_4_3_u09_r13_network.client[14] 	avg_time[14] 	0.004032185434
scalar tree_4_3_u09_r13_network.client[15] 	hdistance[15] 	2.5679735234216
scalar tree_4_3_u09_r13_network.client[15] 	downloads[15] 	11784
scalar tree_4_3_u09_r13_network.client[15] 	avg_time[15] 	0.003998808987
scalar tree_4_3_u09_r13_network.client[16] 	hdistance[16] 	2.5613568340539
scalar tree_4_3_u09_r13_network.client[16] 	downloads[16] 	12028
scalar tree_4_3_u09_r13_network.client[16] 	avg_time[16] 	0.004033424793
scalar tree_4_3_u09_r13_network.client[17] 	hdistance[17] 	2.5719514223923
scalar tree_4_3_u09_r13_network.client[17] 	downloads[17] 	12022
scalar tree_4_3_u09_r13_network.client[17] 	avg_time[17] 	0.004072031606
scalar tree_4_3_u09_r13_network.client[18] 	hdistance[18] 	2.5501425456985
scalar tree_4_3_u09_r13_network.client[18] 	downloads[18] 	11926
scalar tree_4_3_u09_r13_network.client[18] 	avg_time[18] 	0.004009891378
scalar tree_4_3_u09_r13_network.client[19] 	hdistance[19] 	2.5895856190396
scalar tree_4_3_u09_r13_network.client[19] 	downloads[19] 	11849
scalar tree_4_3_u09_r13_network.client[19] 	avg_time[19] 	0.004021602214
scalar tree_4_3_u09_r13_network.client[20] 	hdistance[20] 	2.5537669553849
scalar tree_4_3_u09_r13_network.client[20] 	downloads[20] 	12238
scalar tree_4_3_u09_r13_network.client[20] 	avg_time[20] 	0.004019281135
scalar tree_4_3_u09_r13_network.client[21] 	hdistance[21] 	2.6621554300897
scalar tree_4_3_u09_r13_network.client[21] 	downloads[21] 	12044
scalar tree_4_3_u09_r13_network.client[21] 	avg_time[21] 	0.004160906952
scalar tree_4_3_u09_r13_network.client[22] 	hdistance[22] 	2.6188416857458
scalar tree_4_3_u09_r13_network.client[22] 	downloads[22] 	11793
scalar tree_4_3_u09_r13_network.client[22] 	avg_time[22] 	0.004120407434
scalar tree_4_3_u09_r13_network.client[23] 	hdistance[23] 	2.5843843345503
scalar tree_4_3_u09_r13_network.client[23] 	downloads[23] 	12052
scalar tree_4_3_u09_r13_network.client[23] 	avg_time[23] 	0.0040421477
scalar tree_4_3_u09_r13_network.client[24] 	hdistance[24] 	2.5392246011408
scalar tree_4_3_u09_r13_network.client[24] 	downloads[24] 	12097
scalar tree_4_3_u09_r13_network.client[24] 	avg_time[24] 	0.003983673032
scalar tree_4_3_u09_r13_network.client[25] 	hdistance[25] 	2.5774823431658
scalar tree_4_3_u09_r13_network.client[25] 	downloads[25] 	12035
scalar tree_4_3_u09_r13_network.client[25] 	avg_time[25] 	0.004032734852
scalar tree_4_3_u09_r13_network.client[26] 	hdistance[26] 	2.6322548365577
scalar tree_4_3_u09_r13_network.client[26] 	downloads[26] 	11992
scalar tree_4_3_u09_r13_network.client[26] 	avg_time[26] 	0.00414125782
scalar tree_4_3_u09_r13_network.client[27] 	hdistance[27] 	2.577823577906
scalar tree_4_3_u09_r13_network.client[27] 	downloads[27] 	12130
scalar tree_4_3_u09_r13_network.client[27] 	avg_time[27] 	0.00404810439
scalar tree_4_3_u09_r13_network.client[28] 	hdistance[28] 	2.5578753966928
scalar tree_4_3_u09_r13_network.client[28] 	downloads[28] 	11974
scalar tree_4_3_u09_r13_network.client[28] 	avg_time[28] 	0.004014528496
scalar tree_4_3_u09_r13_network.client[29] 	hdistance[29] 	2.5690331192125
scalar tree_4_3_u09_r13_network.client[29] 	downloads[29] 	11987
scalar tree_4_3_u09_r13_network.client[29] 	avg_time[29] 	0.00403227513
scalar tree_4_3_u09_r13_network.client[30] 	hdistance[30] 	2.6081548599671
scalar tree_4_3_u09_r13_network.client[30] 	downloads[30] 	12140
scalar tree_4_3_u09_r13_network.client[30] 	avg_time[30] 	0.004107566701
scalar tree_4_3_u09_r13_network.client[31] 	hdistance[31] 	2.578367003367
scalar tree_4_3_u09_r13_network.client[31] 	downloads[31] 	11880
scalar tree_4_3_u09_r13_network.client[31] 	avg_time[31] 	0.004069525655
scalar tree_4_3_u09_r13_network.client[32] 	hdistance[32] 	2.5585525213604
scalar tree_4_3_u09_r13_network.client[32] 	downloads[32] 	11938
scalar tree_4_3_u09_r13_network.client[32] 	avg_time[32] 	0.004032498234
scalar tree_4_3_u09_r13_network.client[33] 	hdistance[33] 	2.5726312314295
scalar tree_4_3_u09_r13_network.client[33] 	downloads[33] 	12116
scalar tree_4_3_u09_r13_network.client[33] 	avg_time[33] 	0.004032020717
scalar tree_4_3_u09_r13_network.client[34] 	hdistance[34] 	2.5722750792856
scalar tree_4_3_u09_r13_network.client[34] 	downloads[34] 	11982
scalar tree_4_3_u09_r13_network.client[34] 	avg_time[34] 	0.004053006097
scalar tree_4_3_u09_r13_network.client[35] 	hdistance[35] 	2.6059420772304
scalar tree_4_3_u09_r13_network.client[35] 	downloads[35] 	12016
scalar tree_4_3_u09_r13_network.client[35] 	avg_time[35] 	0.004105689421
scalar tree_4_3_u09_r13_network.client[36] 	hdistance[36] 	2.5573020625416
scalar tree_4_3_u09_r13_network.client[36] 	downloads[36] 	12024
scalar tree_4_3_u09_r13_network.client[36] 	avg_time[36] 	0.004019275028
scalar tree_4_3_u09_r13_network.client[37] 	hdistance[37] 	2.5694785025339
scalar tree_4_3_u09_r13_network.client[37] 	downloads[37] 	12234
scalar tree_4_3_u09_r13_network.client[37] 	avg_time[37] 	0.004026295783
scalar tree_4_3_u09_r13_network.client[38] 	hdistance[38] 	2.584155106134
scalar tree_4_3_u09_r13_network.client[38] 	downloads[38] 	11966
scalar tree_4_3_u09_r13_network.client[38] 	avg_time[38] 	0.004053816165
scalar tree_4_3_u09_r13_network.client[39] 	hdistance[39] 	2.6513377926421
scalar tree_4_3_u09_r13_network.client[39] 	downloads[39] 	11960
scalar tree_4_3_u09_r13_network.client[39] 	avg_time[39] 	0.004130431798
