version 2
run General-565-20160901-13:43:16-8710
attr a 0.9
attr cd ffc0.25
attr configname General
attr cr lru
attr datetime 20160901-13:43:16
attr experiment General
attr fsize 1
attr inifile hw5115/scenario_Y/omnetp.ini
attr iterationvars "$name=tree_4_3, $un=09, $rep=9, $cd=ffc0.25, $cr=lru, $fsize=1, $a=0.9, $sl=nrr, $ttl=1000, $variance=0.05"
attr iterationvars2 "$name=tree_4_3, $un=09, $rep=9, $cd=ffc0.25, $cr=lru, $fsize=1, $a=0.9, $sl=nrr, $ttl=1000, $variance=0.05, $repetition=0"
attr measurement "$name=tree_4_3, $un=09, $rep=9, $cd=ffc0.25, $cr=lru, $fsize=1, $a=0.9, $sl=nrr, $ttl=1000, $variance=0.05"
attr name tree_4_3
attr network networks.${name}_u${un}_r${rep}_network
attr processid 8710
attr rep 9
attr repetition 0
attr replication #0
attr resultdir results
attr runnumber 565
attr seedset 9
attr sl nrr
attr ttl 1000
attr un 09
attr variance 0.05

scalar . 	a 	0.9
scalar . 	fsize 	1
scalar . 	rep 	9
scalar . 	ttl 	1000
scalar . 	un 	09
scalar . 	variance 	0.05
scalar tree_4_3_u09_r9_network.content_distribution 	repo-0 	0
scalar tree_4_3_u09_r9_network.content_distribution 	client-0 	13
scalar tree_4_3_u09_r9_network.content_distribution 	client-1 	14
scalar tree_4_3_u09_r9_network.content_distribution 	client-2 	15
scalar tree_4_3_u09_r9_network.content_distribution 	client-3 	16
scalar tree_4_3_u09_r9_network.content_distribution 	client-4 	17
scalar tree_4_3_u09_r9_network.content_distribution 	client-5 	18
scalar tree_4_3_u09_r9_network.content_distribution 	client-6 	19
scalar tree_4_3_u09_r9_network.content_distribution 	client-7 	20
scalar tree_4_3_u09_r9_network.content_distribution 	client-8 	21
scalar tree_4_3_u09_r9_network.content_distribution 	client-9 	22
scalar tree_4_3_u09_r9_network.content_distribution 	client-10 	23
scalar tree_4_3_u09_r9_network.content_distribution 	client-11 	24
scalar tree_4_3_u09_r9_network.content_distribution 	client-12 	25
scalar tree_4_3_u09_r9_network.content_distribution 	client-13 	26
scalar tree_4_3_u09_r9_network.content_distribution 	client-14 	27
scalar tree_4_3_u09_r9_network.content_distribution 	client-15 	28
scalar tree_4_3_u09_r9_network.content_distribution 	client-16 	29
scalar tree_4_3_u09_r9_network.content_distribution 	client-17 	30
scalar tree_4_3_u09_r9_network.content_distribution 	client-18 	31
scalar tree_4_3_u09_r9_network.content_distribution 	client-19 	32
scalar tree_4_3_u09_r9_network.content_distribution 	client-20 	33
scalar tree_4_3_u09_r9_network.content_distribution 	client-21 	34
scalar tree_4_3_u09_r9_network.content_distribution 	client-22 	35
scalar tree_4_3_u09_r9_network.content_distribution 	client-23 	36
scalar tree_4_3_u09_r9_network.content_distribution 	client-24 	37
scalar tree_4_3_u09_r9_network.content_distribution 	client-25 	38
scalar tree_4_3_u09_r9_network.content_distribution 	client-26 	39
scalar tree_4_3_u09_r9_network.content_distribution 	repo-0_card 	100000
scalar tree_4_3_u09_r9_network.content_distribution 	repo-0_price 	0
scalar tree_4_3_u09_r9_network.statistics 	stabilization_time 	1953.7
scalar tree_4_3_u09_r9_network.statistics 	p_hit 	0.24281163401489
scalar tree_4_3_u09_r9_network.statistics 	interests 	24432.775
scalar tree_4_3_u09_r9_network.statistics 	data 	16369.15
scalar tree_4_3_u09_r9_network.statistics 	hdistance 	2.5828927400718
scalar tree_4_3_u09_r9_network.statistics 	avg_time 	0.004060022762
scalar tree_4_3_u09_r9_network.statistics 	downloads 	322536
scalar tree_4_3_u09_r9_network.statistics 	total_cost 	0
scalar tree_4_3_u09_r9_network.statistics 	total_replicas 	100000
scalar tree_4_3_u09_r9_network.statistics 	inner_hit 	0.44713768385545
scalar tree_4_3_u09_r9_network.node[0].core_layer 	interests[0] 	181287
scalar tree_4_3_u09_r9_network.node[0].core_layer 	repo_load[0] 	178318
scalar tree_4_3_u09_r9_network.node[0].core_layer 	data[0] 	0
scalar tree_4_3_u09_r9_network.node[0].core_layer 	repo_int[0] 	178318
scalar tree_4_3_u09_r9_network.node[0].content_store 	p_hit[0] 	0.016377346417559
scalar tree_4_3_u09_r9_network.node[0].content_store 	hits[0] 	2969
scalar tree_4_3_u09_r9_network.node[0].content_store 	misses[0] 	178318
scalar tree_4_3_u09_r9_network.node[0].content_store 	decision_yes[0] 	167
scalar tree_4_3_u09_r9_network.node[0].content_store 	decision_no[0] 	178151
scalar tree_4_3_u09_r9_network.node[0].content_store 	decision_ratio[0] 	0.00093652912213013
scalar tree_4_3_u09_r9_network.node[1].core_layer 	interests[1] 	99279
scalar tree_4_3_u09_r9_network.node[1].core_layer 	data[1] 	97106
scalar tree_4_3_u09_r9_network.node[1].content_store 	p_hit[1] 	0.021887811118162
scalar tree_4_3_u09_r9_network.node[1].content_store 	hits[1] 	2173
scalar tree_4_3_u09_r9_network.node[1].content_store 	misses[1] 	97106
scalar tree_4_3_u09_r9_network.node[1].content_store 	decision_yes[1] 	105
scalar tree_4_3_u09_r9_network.node[1].content_store 	decision_no[1] 	97001
scalar tree_4_3_u09_r9_network.node[1].content_store 	decision_ratio[1] 	0.0010812926080778
scalar tree_4_3_u09_r9_network.node[2].core_layer 	interests[2] 	69722
scalar tree_4_3_u09_r9_network.node[2].core_layer 	data[2] 	66210
scalar tree_4_3_u09_r9_network.node[2].content_store 	p_hit[2] 	0.050357132612375
scalar tree_4_3_u09_r9_network.node[2].content_store 	hits[2] 	3511
scalar tree_4_3_u09_r9_network.node[2].content_store 	misses[2] 	66211
scalar tree_4_3_u09_r9_network.node[2].content_store 	decision_yes[2] 	84
scalar tree_4_3_u09_r9_network.node[2].content_store 	decision_no[2] 	66126
scalar tree_4_3_u09_r9_network.node[2].content_store 	decision_ratio[2] 	0.0012686905301314
scalar tree_4_3_u09_r9_network.node[3].core_layer 	interests[3] 	36021
scalar tree_4_3_u09_r9_network.node[3].core_layer 	data[3] 	32377
scalar tree_4_3_u09_r9_network.node[3].content_store 	p_hit[3] 	0.10116321034952
scalar tree_4_3_u09_r9_network.node[3].content_store 	hits[3] 	3644
scalar tree_4_3_u09_r9_network.node[3].content_store 	misses[3] 	32377
scalar tree_4_3_u09_r9_network.node[3].content_store 	decision_yes[3] 	85
scalar tree_4_3_u09_r9_network.node[3].content_store 	decision_no[3] 	32292
scalar tree_4_3_u09_r9_network.node[3].content_store 	decision_ratio[3] 	0.0026253204435247
scalar tree_4_3_u09_r9_network.node[4].core_layer 	interests[4] 	40546
scalar tree_4_3_u09_r9_network.node[4].core_layer 	data[4] 	38027
scalar tree_4_3_u09_r9_network.node[4].content_store 	p_hit[4] 	0.062102303556454
scalar tree_4_3_u09_r9_network.node[4].content_store 	hits[4] 	2518
scalar tree_4_3_u09_r9_network.node[4].content_store 	misses[4] 	38028
scalar tree_4_3_u09_r9_network.node[4].content_store 	decision_yes[4] 	62
scalar tree_4_3_u09_r9_network.node[4].content_store 	decision_no[4] 	37965
scalar tree_4_3_u09_r9_network.node[4].content_store 	decision_ratio[4] 	0.001630420490704
scalar tree_4_3_u09_r9_network.node[5].core_layer 	interests[5] 	28830
scalar tree_4_3_u09_r9_network.node[5].core_layer 	data[5] 	25518
scalar tree_4_3_u09_r9_network.node[5].content_store 	p_hit[5] 	0.11484564689559
scalar tree_4_3_u09_r9_network.node[5].content_store 	hits[5] 	3311
scalar tree_4_3_u09_r9_network.node[5].content_store 	misses[5] 	25519
scalar tree_4_3_u09_r9_network.node[5].content_store 	decision_yes[5] 	94
scalar tree_4_3_u09_r9_network.node[5].content_store 	decision_no[5] 	25424
scalar tree_4_3_u09_r9_network.node[5].content_store 	decision_ratio[5] 	0.0036836742691433
scalar tree_4_3_u09_r9_network.node[6].core_layer 	interests[6] 	14303
scalar tree_4_3_u09_r9_network.node[6].core_layer 	data[6] 	10923
scalar tree_4_3_u09_r9_network.node[6].content_store 	p_hit[6] 	0.23624414458505
scalar tree_4_3_u09_r9_network.node[6].content_store 	hits[6] 	3379
scalar tree_4_3_u09_r9_network.node[6].content_store 	misses[6] 	10924
scalar tree_4_3_u09_r9_network.node[6].content_store 	decision_yes[6] 	78
scalar tree_4_3_u09_r9_network.node[6].content_store 	decision_no[6] 	10845
scalar tree_4_3_u09_r9_network.node[6].content_store 	decision_ratio[6] 	0.007140895358418
scalar tree_4_3_u09_r9_network.node[7].core_layer 	interests[7] 	42978
scalar tree_4_3_u09_r9_network.node[7].core_layer 	data[7] 	39731
scalar tree_4_3_u09_r9_network.node[7].content_store 	p_hit[7] 	0.075527013821025
scalar tree_4_3_u09_r9_network.node[7].content_store 	hits[7] 	3246
scalar tree_4_3_u09_r9_network.node[7].content_store 	misses[7] 	39732
scalar tree_4_3_u09_r9_network.node[7].content_store 	decision_yes[7] 	76
scalar tree_4_3_u09_r9_network.node[7].content_store 	decision_no[7] 	39655
scalar tree_4_3_u09_r9_network.node[7].content_store 	decision_ratio[7] 	0.0019128640104704
scalar tree_4_3_u09_r9_network.node[8].core_layer 	interests[8] 	26742
scalar tree_4_3_u09_r9_network.node[8].core_layer 	data[8] 	23868
scalar tree_4_3_u09_r9_network.node[8].content_store 	p_hit[8] 	0.10739660459203
scalar tree_4_3_u09_r9_network.node[8].content_store 	hits[8] 	2872
scalar tree_4_3_u09_r9_network.node[8].content_store 	misses[8] 	23870
scalar tree_4_3_u09_r9_network.node[8].content_store 	decision_yes[8] 	43
scalar tree_4_3_u09_r9_network.node[8].content_store 	decision_no[8] 	23825
scalar tree_4_3_u09_r9_network.node[8].content_store 	decision_ratio[8] 	0.0018015753309871
scalar tree_4_3_u09_r9_network.node[9].core_layer 	interests[9] 	14183
scalar tree_4_3_u09_r9_network.node[9].core_layer 	data[9] 	10628
scalar tree_4_3_u09_r9_network.node[9].content_store 	p_hit[9] 	0.25065218924064
scalar tree_4_3_u09_r9_network.node[9].content_store 	hits[9] 	3555
scalar tree_4_3_u09_r9_network.node[9].content_store 	misses[9] 	10628
scalar tree_4_3_u09_r9_network.node[9].content_store 	decision_yes[9] 	98
scalar tree_4_3_u09_r9_network.node[9].content_store 	decision_no[9] 	10530
scalar tree_4_3_u09_r9_network.node[9].content_store 	decision_ratio[9] 	0.0092209258562288
scalar tree_4_3_u09_r9_network.node[10].core_layer 	interests[10] 	27134
scalar tree_4_3_u09_r9_network.node[10].core_layer 	data[10] 	24683
scalar tree_4_3_u09_r9_network.node[10].content_store 	p_hit[10] 	0.090329475934252
scalar tree_4_3_u09_r9_network.node[10].content_store 	hits[10] 	2451
scalar tree_4_3_u09_r9_network.node[10].content_store 	misses[10] 	24683
scalar tree_4_3_u09_r9_network.node[10].content_store 	decision_yes[10] 	72
scalar tree_4_3_u09_r9_network.node[10].content_store 	decision_no[10] 	24611
scalar tree_4_3_u09_r9_network.node[10].content_store 	decision_ratio[10] 	0.002916987400235
scalar tree_4_3_u09_r9_network.node[11].core_layer 	interests[11] 	43960
scalar tree_4_3_u09_r9_network.node[11].core_layer 	data[11] 	40506
scalar tree_4_3_u09_r9_network.node[11].content_store 	p_hit[11] 	0.078594176524113
scalar tree_4_3_u09_r9_network.node[11].content_store 	hits[11] 	3455
scalar tree_4_3_u09_r9_network.node[11].content_store 	misses[11] 	40505
scalar tree_4_3_u09_r9_network.node[11].content_store 	decision_yes[11] 	98
scalar tree_4_3_u09_r9_network.node[11].content_store 	decision_no[11] 	40408
scalar tree_4_3_u09_r9_network.node[11].content_store 	decision_ratio[11] 	0.0024193946575816
scalar tree_4_3_u09_r9_network.node[12].core_layer 	interests[12] 	11935
scalar tree_4_3_u09_r9_network.node[12].core_layer 	data[12] 	8986
scalar tree_4_3_u09_r9_network.node[12].content_store 	p_hit[12] 	0.24708839547549
scalar tree_4_3_u09_r9_network.node[12].content_store 	hits[12] 	2949
scalar tree_4_3_u09_r9_network.node[12].content_store 	misses[12] 	8986
scalar tree_4_3_u09_r9_network.node[12].content_store 	decision_yes[12] 	53
scalar tree_4_3_u09_r9_network.node[12].content_store 	decision_no[12] 	8933
scalar tree_4_3_u09_r9_network.node[12].content_store 	decision_ratio[12] 	0.0058980636545738
scalar tree_4_3_u09_r9_network.node[13].core_layer 	interests[13] 	12349
scalar tree_4_3_u09_r9_network.node[13].core_layer 	data[13] 	8751
scalar tree_4_3_u09_r9_network.node[13].content_store 	p_hit[13] 	0.29135962426107
scalar tree_4_3_u09_r9_network.node[13].content_store 	hits[13] 	3598
scalar tree_4_3_u09_r9_network.node[13].content_store 	misses[13] 	8751
scalar tree_4_3_u09_r9_network.node[13].content_store 	decision_yes[13] 	27
scalar tree_4_3_u09_r9_network.node[13].content_store 	decision_no[13] 	8724
scalar tree_4_3_u09_r9_network.node[13].content_store 	decision_ratio[13] 	0.0030853616729517
scalar tree_4_3_u09_r9_network.node[14].core_layer 	interests[14] 	12795
scalar tree_4_3_u09_r9_network.node[14].core_layer 	data[14] 	8821
scalar tree_4_3_u09_r9_network.node[14].content_store 	p_hit[14] 	0.31059007424775
scalar tree_4_3_u09_r9_network.node[14].content_store 	hits[14] 	3974
scalar tree_4_3_u09_r9_network.node[14].content_store 	misses[14] 	8821
scalar tree_4_3_u09_r9_network.node[14].content_store 	decision_yes[14] 	35
scalar tree_4_3_u09_r9_network.node[14].content_store 	decision_no[14] 	8786
scalar tree_4_3_u09_r9_network.node[14].content_store 	decision_ratio[14] 	0.0039678041038431
scalar tree_4_3_u09_r9_network.node[15].core_layer 	interests[15] 	12556
scalar tree_4_3_u09_r9_network.node[15].core_layer 	data[15] 	8588
scalar tree_4_3_u09_r9_network.node[15].content_store 	p_hit[15] 	0.31594456833386
scalar tree_4_3_u09_r9_network.node[15].content_store 	hits[15] 	3967
scalar tree_4_3_u09_r9_network.node[15].content_store 	misses[15] 	8589
scalar tree_4_3_u09_r9_network.node[15].content_store 	decision_yes[15] 	21
scalar tree_4_3_u09_r9_network.node[15].content_store 	decision_no[15] 	8567
scalar tree_4_3_u09_r9_network.node[15].content_store 	decision_ratio[15] 	0.0024452724732184
scalar tree_4_3_u09_r9_network.node[16].core_layer 	interests[16] 	12815
scalar tree_4_3_u09_r9_network.node[16].core_layer 	data[16] 	8764
scalar tree_4_3_u09_r9_network.node[16].content_store 	p_hit[16] 	0.31611392898947
scalar tree_4_3_u09_r9_network.node[16].content_store 	hits[16] 	4051
scalar tree_4_3_u09_r9_network.node[16].content_store 	misses[16] 	8764
scalar tree_4_3_u09_r9_network.node[16].content_store 	decision_yes[16] 	30
scalar tree_4_3_u09_r9_network.node[16].content_store 	decision_no[16] 	8734
scalar tree_4_3_u09_r9_network.node[16].content_store 	decision_ratio[16] 	0.0034230944774076
scalar tree_4_3_u09_r9_network.node[17].core_layer 	interests[17] 	12436
scalar tree_4_3_u09_r9_network.node[17].core_layer 	data[17] 	8690
scalar tree_4_3_u09_r9_network.node[17].content_store 	p_hit[17] 	0.30122225796076
scalar tree_4_3_u09_r9_network.node[17].content_store 	hits[17] 	3746
scalar tree_4_3_u09_r9_network.node[17].content_store 	misses[17] 	8690
scalar tree_4_3_u09_r9_network.node[17].content_store 	decision_yes[17] 	24
scalar tree_4_3_u09_r9_network.node[17].content_store 	decision_no[17] 	8666
scalar tree_4_3_u09_r9_network.node[17].content_store 	decision_ratio[17] 	0.0027617951668585
scalar tree_4_3_u09_r9_network.node[18].core_layer 	interests[18] 	12708
scalar tree_4_3_u09_r9_network.node[18].core_layer 	data[18] 	8790
scalar tree_4_3_u09_r9_network.node[18].content_store 	p_hit[18] 	0.30830972615675
scalar tree_4_3_u09_r9_network.node[18].content_store 	hits[18] 	3918
scalar tree_4_3_u09_r9_network.node[18].content_store 	misses[18] 	8790
scalar tree_4_3_u09_r9_network.node[18].content_store 	decision_yes[18] 	40
scalar tree_4_3_u09_r9_network.node[18].content_store 	decision_no[18] 	8750
scalar tree_4_3_u09_r9_network.node[18].content_store 	decision_ratio[18] 	0.0045506257110353
scalar tree_4_3_u09_r9_network.node[19].core_layer 	interests[19] 	12889
scalar tree_4_3_u09_r9_network.node[19].core_layer 	data[19] 	8844
scalar tree_4_3_u09_r9_network.node[19].content_store 	p_hit[19] 	0.31383350143533
scalar tree_4_3_u09_r9_network.node[19].content_store 	hits[19] 	4045
scalar tree_4_3_u09_r9_network.node[19].content_store 	misses[19] 	8844
scalar tree_4_3_u09_r9_network.node[19].content_store 	decision_yes[19] 	30
scalar tree_4_3_u09_r9_network.node[19].content_store 	decision_no[19] 	8814
scalar tree_4_3_u09_r9_network.node[19].content_store 	decision_ratio[19] 	0.0033921302578019
scalar tree_4_3_u09_r9_network.node[20].core_layer 	interests[20] 	12857
scalar tree_4_3_u09_r9_network.node[20].core_layer 	data[20] 	8843
scalar tree_4_3_u09_r9_network.node[20].content_store 	p_hit[20] 	0.31228124756942
scalar tree_4_3_u09_r9_network.node[20].content_store 	hits[20] 	4015
scalar tree_4_3_u09_r9_network.node[20].content_store 	misses[20] 	8842
scalar tree_4_3_u09_r9_network.node[20].content_store 	decision_yes[20] 	25
scalar tree_4_3_u09_r9_network.node[20].content_store 	decision_no[20] 	8818
scalar tree_4_3_u09_r9_network.node[20].content_store 	decision_ratio[20] 	0.0028270948773041
scalar tree_4_3_u09_r9_network.node[21].core_layer 	interests[21] 	12380
scalar tree_4_3_u09_r9_network.node[21].core_layer 	data[21] 	8756
scalar tree_4_3_u09_r9_network.node[21].content_store 	p_hit[21] 	0.29273021001616
scalar tree_4_3_u09_r9_network.node[21].content_store 	hits[21] 	3624
scalar tree_4_3_u09_r9_network.node[21].content_store 	misses[21] 	8756
scalar tree_4_3_u09_r9_network.node[21].content_store 	decision_yes[21] 	24
scalar tree_4_3_u09_r9_network.node[21].content_store 	decision_no[21] 	8732
scalar tree_4_3_u09_r9_network.node[21].content_store 	decision_ratio[21] 	0.0027409776153495
scalar tree_4_3_u09_r9_network.node[22].core_layer 	interests[22] 	12573
scalar tree_4_3_u09_r9_network.node[22].core_layer 	data[22] 	8785
scalar tree_4_3_u09_r9_network.node[22].content_store 	p_hit[22] 	0.30128052175296
scalar tree_4_3_u09_r9_network.node[22].content_store 	hits[22] 	3788
scalar tree_4_3_u09_r9_network.node[22].content_store 	misses[22] 	8785
scalar tree_4_3_u09_r9_network.node[22].content_store 	decision_yes[22] 	21
scalar tree_4_3_u09_r9_network.node[22].content_store 	decision_no[22] 	8764
scalar tree_4_3_u09_r9_network.node[22].content_store 	decision_ratio[22] 	0.002390438247012
scalar tree_4_3_u09_r9_network.node[23].core_layer 	interests[23] 	12717
scalar tree_4_3_u09_r9_network.node[23].core_layer 	data[23] 	8599
scalar tree_4_3_u09_r9_network.node[23].content_store 	p_hit[23] 	0.32381851065503
scalar tree_4_3_u09_r9_network.node[23].content_store 	hits[23] 	4118
scalar tree_4_3_u09_r9_network.node[23].content_store 	misses[23] 	8599
scalar tree_4_3_u09_r9_network.node[23].content_store 	decision_yes[23] 	23
scalar tree_4_3_u09_r9_network.node[23].content_store 	decision_no[23] 	8576
scalar tree_4_3_u09_r9_network.node[23].content_store 	decision_ratio[23] 	0.0026747296197232
scalar tree_4_3_u09_r9_network.node[24].core_layer 	interests[24] 	12667
scalar tree_4_3_u09_r9_network.node[24].core_layer 	data[24] 	8660
scalar tree_4_3_u09_r9_network.node[24].content_store 	p_hit[24] 	0.31633378068998
scalar tree_4_3_u09_r9_network.node[24].content_store 	hits[24] 	4007
scalar tree_4_3_u09_r9_network.node[24].content_store 	misses[24] 	8660
scalar tree_4_3_u09_r9_network.node[24].content_store 	decision_yes[24] 	32
scalar tree_4_3_u09_r9_network.node[24].content_store 	decision_no[24] 	8628
scalar tree_4_3_u09_r9_network.node[24].content_store 	decision_ratio[24] 	0.0036951501154734
scalar tree_4_3_u09_r9_network.node[25].core_layer 	interests[25] 	12847
scalar tree_4_3_u09_r9_network.node[25].core_layer 	data[25] 	8870
scalar tree_4_3_u09_r9_network.node[25].content_store 	p_hit[25] 	0.30948859655951
scalar tree_4_3_u09_r9_network.node[25].content_store 	hits[25] 	3976
scalar tree_4_3_u09_r9_network.node[25].content_store 	misses[25] 	8871
scalar tree_4_3_u09_r9_network.node[25].content_store 	decision_yes[25] 	32
scalar tree_4_3_u09_r9_network.node[25].content_store 	decision_no[25] 	8838
scalar tree_4_3_u09_r9_network.node[25].content_store 	decision_ratio[25] 	0.0036076662908681
scalar tree_4_3_u09_r9_network.node[26].core_layer 	interests[26] 	12388
scalar tree_4_3_u09_r9_network.node[26].core_layer 	data[26] 	8702
scalar tree_4_3_u09_r9_network.node[26].content_store 	p_hit[26] 	0.29746528898934
scalar tree_4_3_u09_r9_network.node[26].content_store 	hits[26] 	3685
scalar tree_4_3_u09_r9_network.node[26].content_store 	misses[26] 	8703
scalar tree_4_3_u09_r9_network.node[26].content_store 	decision_yes[26] 	31
scalar tree_4_3_u09_r9_network.node[26].content_store 	decision_no[26] 	8671
scalar tree_4_3_u09_r9_network.node[26].content_store 	decision_ratio[26] 	0.0035623994484027
scalar tree_4_3_u09_r9_network.node[27].core_layer 	interests[27] 	12675
scalar tree_4_3_u09_r9_network.node[27].core_layer 	data[27] 	8699
scalar tree_4_3_u09_r9_network.node[27].content_store 	p_hit[27] 	0.31360946745562
scalar tree_4_3_u09_r9_network.node[27].content_store 	hits[27] 	3975
scalar tree_4_3_u09_r9_network.node[27].content_store 	misses[27] 	8700
scalar tree_4_3_u09_r9_network.node[27].content_store 	decision_yes[27] 	29
scalar tree_4_3_u09_r9_network.node[27].content_store 	decision_no[27] 	8670
scalar tree_4_3_u09_r9_network.node[27].content_store 	decision_ratio[27] 	0.0033337165191401
scalar tree_4_3_u09_r9_network.node[28].core_layer 	interests[28] 	12841
scalar tree_4_3_u09_r9_network.node[28].core_layer 	data[28] 	8842
scalar tree_4_3_u09_r9_network.node[28].content_store 	p_hit[28] 	0.31134646834359
scalar tree_4_3_u09_r9_network.node[28].content_store 	hits[28] 	3998
scalar tree_4_3_u09_r9_network.node[28].content_store 	misses[28] 	8843
scalar tree_4_3_u09_r9_network.node[28].content_store 	decision_yes[28] 	24
scalar tree_4_3_u09_r9_network.node[28].content_store 	decision_no[28] 	8818
scalar tree_4_3_u09_r9_network.node[28].content_store 	decision_ratio[28] 	0.0027143180275956
scalar tree_4_3_u09_r9_network.node[29].core_layer 	interests[29] 	12631
scalar tree_4_3_u09_r9_network.node[29].core_layer 	data[29] 	8627
scalar tree_4_3_u09_r9_network.node[29].content_store 	p_hit[29] 	0.31699786240203
scalar tree_4_3_u09_r9_network.node[29].content_store 	hits[29] 	4004
scalar tree_4_3_u09_r9_network.node[29].content_store 	misses[29] 	8627
scalar tree_4_3_u09_r9_network.node[29].content_store 	decision_yes[29] 	36
scalar tree_4_3_u09_r9_network.node[29].content_store 	decision_no[29] 	8591
scalar tree_4_3_u09_r9_network.node[29].content_store 	decision_ratio[29] 	0.0041729454039643
scalar tree_4_3_u09_r9_network.node[30].core_layer 	interests[30] 	12359
scalar tree_4_3_u09_r9_network.node[30].core_layer 	data[30] 	8742
scalar tree_4_3_u09_r9_network.node[30].content_store 	p_hit[30] 	0.29266121854519
scalar tree_4_3_u09_r9_network.node[30].content_store 	hits[30] 	3617
scalar tree_4_3_u09_r9_network.node[30].content_store 	misses[30] 	8742
scalar tree_4_3_u09_r9_network.node[30].content_store 	decision_yes[30] 	32
scalar tree_4_3_u09_r9_network.node[30].content_store 	decision_no[30] 	8710
scalar tree_4_3_u09_r9_network.node[30].content_store 	decision_ratio[30] 	0.0036604895904827
scalar tree_4_3_u09_r9_network.node[31].core_layer 	interests[31] 	12249
scalar tree_4_3_u09_r9_network.node[31].core_layer 	data[31] 	8687
scalar tree_4_3_u09_r9_network.node[31].content_store 	p_hit[31] 	0.29079924891828
scalar tree_4_3_u09_r9_network.node[31].content_store 	hits[31] 	3562
scalar tree_4_3_u09_r9_network.node[31].content_store 	misses[31] 	8687
scalar tree_4_3_u09_r9_network.node[31].content_store 	decision_yes[31] 	27
scalar tree_4_3_u09_r9_network.node[31].content_store 	decision_no[31] 	8660
scalar tree_4_3_u09_r9_network.node[31].content_store 	decision_ratio[31] 	0.0031080925520893
scalar tree_4_3_u09_r9_network.node[32].core_layer 	interests[32] 	12956
scalar tree_4_3_u09_r9_network.node[32].core_layer 	data[32] 	8829
scalar tree_4_3_u09_r9_network.node[32].content_store 	p_hit[32] 	0.3185396727385
scalar tree_4_3_u09_r9_network.node[32].content_store 	hits[32] 	4127
scalar tree_4_3_u09_r9_network.node[32].content_store 	misses[32] 	8829
scalar tree_4_3_u09_r9_network.node[32].content_store 	decision_yes[32] 	34
scalar tree_4_3_u09_r9_network.node[32].content_store 	decision_no[32] 	8795
scalar tree_4_3_u09_r9_network.node[32].content_store 	decision_ratio[32] 	0.0038509457469702
scalar tree_4_3_u09_r9_network.node[33].core_layer 	interests[33] 	12554
scalar tree_4_3_u09_r9_network.node[33].core_layer 	data[33] 	8813
scalar tree_4_3_u09_r9_network.node[33].content_store 	p_hit[33] 	0.29791301577187
scalar tree_4_3_u09_r9_network.node[33].content_store 	hits[33] 	3740
scalar tree_4_3_u09_r9_network.node[33].content_store 	misses[33] 	8814
scalar tree_4_3_u09_r9_network.node[33].content_store 	decision_yes[33] 	40
scalar tree_4_3_u09_r9_network.node[33].content_store 	decision_no[33] 	8773
scalar tree_4_3_u09_r9_network.node[33].content_store 	decision_ratio[33] 	0.0045387495744922
scalar tree_4_3_u09_r9_network.node[34].core_layer 	interests[34] 	12322
scalar tree_4_3_u09_r9_network.node[34].core_layer 	data[34] 	8604
scalar tree_4_3_u09_r9_network.node[34].content_store 	p_hit[34] 	0.30173673105015
scalar tree_4_3_u09_r9_network.node[34].content_store 	hits[34] 	3718
scalar tree_4_3_u09_r9_network.node[34].content_store 	misses[34] 	8604
scalar tree_4_3_u09_r9_network.node[34].content_store 	decision_yes[34] 	28
scalar tree_4_3_u09_r9_network.node[34].content_store 	decision_no[34] 	8576
scalar tree_4_3_u09_r9_network.node[34].content_store 	decision_ratio[34] 	0.00325430032543
scalar tree_4_3_u09_r9_network.node[35].core_layer 	interests[35] 	12605
scalar tree_4_3_u09_r9_network.node[35].core_layer 	data[35] 	8790
scalar tree_4_3_u09_r9_network.node[35].content_store 	p_hit[35] 	0.30265767552559
scalar tree_4_3_u09_r9_network.node[35].content_store 	hits[35] 	3815
scalar tree_4_3_u09_r9_network.node[35].content_store 	misses[35] 	8790
scalar tree_4_3_u09_r9_network.node[35].content_store 	decision_yes[35] 	27
scalar tree_4_3_u09_r9_network.node[35].content_store 	decision_no[35] 	8763
scalar tree_4_3_u09_r9_network.node[35].content_store 	decision_ratio[35] 	0.0030716723549488
scalar tree_4_3_u09_r9_network.node[36].core_layer 	interests[36] 	12720
scalar tree_4_3_u09_r9_network.node[36].core_layer 	data[36] 	8746
scalar tree_4_3_u09_r9_network.node[36].content_store 	p_hit[36] 	0.3124213836478
scalar tree_4_3_u09_r9_network.node[36].content_store 	hits[36] 	3974
scalar tree_4_3_u09_r9_network.node[36].content_store 	misses[36] 	8746
scalar tree_4_3_u09_r9_network.node[36].content_store 	decision_yes[36] 	31
scalar tree_4_3_u09_r9_network.node[36].content_store 	decision_no[36] 	8715
scalar tree_4_3_u09_r9_network.node[36].content_store 	decision_ratio[36] 	0.0035444774754173
scalar tree_4_3_u09_r9_network.node[37].core_layer 	interests[37] 	12625
scalar tree_4_3_u09_r9_network.node[37].core_layer 	data[37] 	8792
scalar tree_4_3_u09_r9_network.node[37].content_store 	p_hit[37] 	0.30352475247525
scalar tree_4_3_u09_r9_network.node[37].content_store 	hits[37] 	3832
scalar tree_4_3_u09_r9_network.node[37].content_store 	misses[37] 	8793
scalar tree_4_3_u09_r9_network.node[37].content_store 	decision_yes[37] 	26
scalar tree_4_3_u09_r9_network.node[37].content_store 	decision_no[37] 	8766
scalar tree_4_3_u09_r9_network.node[37].content_store 	decision_ratio[37] 	0.0029572338489536
scalar tree_4_3_u09_r9_network.node[38].core_layer 	interests[38] 	12775
scalar tree_4_3_u09_r9_network.node[38].core_layer 	data[38] 	8882
scalar tree_4_3_u09_r9_network.node[38].content_store 	p_hit[38] 	0.30473581213307
scalar tree_4_3_u09_r9_network.node[38].content_store 	hits[38] 	3893
scalar tree_4_3_u09_r9_network.node[38].content_store 	misses[38] 	8882
scalar tree_4_3_u09_r9_network.node[38].content_store 	decision_yes[38] 	26
scalar tree_4_3_u09_r9_network.node[38].content_store 	decision_no[38] 	8856
scalar tree_4_3_u09_r9_network.node[38].content_store 	decision_ratio[38] 	0.0029272686331907
scalar tree_4_3_u09_r9_network.node[39].core_layer 	interests[39] 	12102
scalar tree_4_3_u09_r9_network.node[39].core_layer 	data[39] 	8687
scalar tree_4_3_u09_r9_network.node[39].content_store 	p_hit[39] 	0.28218476284912
scalar tree_4_3_u09_r9_network.node[39].content_store 	hits[39] 	3415
scalar tree_4_3_u09_r9_network.node[39].content_store 	misses[39] 	8687
scalar tree_4_3_u09_r9_network.node[39].content_store 	decision_yes[39] 	26
scalar tree_4_3_u09_r9_network.node[39].content_store 	decision_no[39] 	8661
scalar tree_4_3_u09_r9_network.node[39].content_store 	decision_ratio[39] 	0.0029929780131231
scalar tree_4_3_u09_r9_network.client[13] 	hdistance[13] 	2.6336214060163
scalar tree_4_3_u09_r9_network.client[13] 	downloads[13] 	12034
scalar tree_4_3_u09_r9_network.client[13] 	avg_time[13] 	0.004127635331
scalar tree_4_3_u09_r9_network.client[14] 	hdistance[14] 	2.5753424657534
scalar tree_4_3_u09_r9_network.client[14] 	downloads[14] 	11972
scalar tree_4_3_u09_r9_network.client[14] 	avg_time[14] 	0.004048944536
scalar tree_4_3_u09_r9_network.client[15] 	hdistance[15] 	2.5656462585034
scalar tree_4_3_u09_r9_network.client[15] 	downloads[15] 	11760
scalar tree_4_3_u09_r9_network.client[15] 	avg_time[15] 	0.004021935838
scalar tree_4_3_u09_r9_network.client[16] 	hdistance[16] 	2.5552137036421
scalar tree_4_3_u09_r9_network.client[16] 	downloads[16] 	12026
scalar tree_4_3_u09_r9_network.client[16] 	avg_time[16] 	0.00401030798
scalar tree_4_3_u09_r9_network.client[17] 	hdistance[17] 	2.6069547772298
scalar tree_4_3_u09_r9_network.client[17] 	downloads[17] 	11963
scalar tree_4_3_u09_r9_network.client[17] 	avg_time[17] 	0.004112009039
scalar tree_4_3_u09_r9_network.client[18] 	hdistance[18] 	2.5736014872401
scalar tree_4_3_u09_r9_network.client[18] 	downloads[18] 	11834
scalar tree_4_3_u09_r9_network.client[18] 	avg_time[18] 	0.004055261491
scalar tree_4_3_u09_r9_network.client[19] 	hdistance[19] 	2.5717371438066
scalar tree_4_3_u09_r9_network.client[19] 	downloads[19] 	12037
scalar tree_4_3_u09_r9_network.client[19] 	avg_time[19] 	0.004039541754
scalar tree_4_3_u09_r9_network.client[20] 	hdistance[20] 	2.5536072144289
scalar tree_4_3_u09_r9_network.client[20] 	downloads[20] 	11976
scalar tree_4_3_u09_r9_network.client[20] 	avg_time[20] 	0.004024415414
scalar tree_4_3_u09_r9_network.client[21] 	hdistance[21] 	2.6009811258003
scalar tree_4_3_u09_r9_network.client[21] 	downloads[21] 	12027
scalar tree_4_3_u09_r9_network.client[21] 	avg_time[21] 	0.004112909607
scalar tree_4_3_u09_r9_network.client[22] 	hdistance[22] 	2.6069143189562
scalar tree_4_3_u09_r9_network.client[22] 	downloads[22] 	12033
scalar tree_4_3_u09_r9_network.client[22] 	avg_time[22] 	0.004114493741
scalar tree_4_3_u09_r9_network.client[23] 	hdistance[23] 	2.5179577760956
scalar tree_4_3_u09_r9_network.client[23] 	downloads[23] 	11889
scalar tree_4_3_u09_r9_network.client[23] 	avg_time[23] 	0.003959960006
scalar tree_4_3_u09_r9_network.client[24] 	hdistance[24] 	2.5411109235185
scalar tree_4_3_u09_r9_network.client[24] 	downloads[24] 	11846
scalar tree_4_3_u09_r9_network.client[24] 	avg_time[24] 	0.003995100882
scalar tree_4_3_u09_r9_network.client[25] 	hdistance[25] 	2.5823652319265
scalar tree_4_3_u09_r9_network.client[25] 	downloads[25] 	11965
scalar tree_4_3_u09_r9_network.client[25] 	avg_time[25] 	0.004058166679
scalar tree_4_3_u09_r9_network.client[26] 	hdistance[26] 	2.6195561488403
scalar tree_4_3_u09_r9_network.client[26] 	downloads[26] 	11986
scalar tree_4_3_u09_r9_network.client[26] 	avg_time[26] 	0.004119136015
scalar tree_4_3_u09_r9_network.client[27] 	hdistance[27] 	2.5716445489669
scalar tree_4_3_u09_r9_network.client[27] 	downloads[27] 	11906
scalar tree_4_3_u09_r9_network.client[27] 	avg_time[27] 	0.004036281269
scalar tree_4_3_u09_r9_network.client[28] 	hdistance[28] 	2.5468593384564
scalar tree_4_3_u09_r9_network.client[28] 	downloads[28] 	11972
scalar tree_4_3_u09_r9_network.client[28] 	avg_time[28] 	0.004011023766
scalar tree_4_3_u09_r9_network.client[29] 	hdistance[29] 	2.5424936386769
scalar tree_4_3_u09_r9_network.client[29] 	downloads[29] 	11790
scalar tree_4_3_u09_r9_network.client[29] 	avg_time[29] 	0.00400152375
scalar tree_4_3_u09_r9_network.client[30] 	hdistance[30] 	2.5917671517671
scalar tree_4_3_u09_r9_network.client[30] 	downloads[30] 	12025
scalar tree_4_3_u09_r9_network.client[30] 	avg_time[30] 	0.004089477246
scalar tree_4_3_u09_r9_network.client[31] 	hdistance[31] 	2.6353109003944
scalar tree_4_3_u09_r9_network.client[31] 	downloads[31] 	11917
scalar tree_4_3_u09_r9_network.client[31] 	avg_time[31] 	0.004133419831
scalar tree_4_3_u09_r9_network.client[32] 	hdistance[32] 	2.5611877875366
scalar tree_4_3_u09_r9_network.client[32] 	downloads[32] 	11955
scalar tree_4_3_u09_r9_network.client[32] 	avg_time[32] 	0.004031448278
scalar tree_4_3_u09_r9_network.client[33] 	hdistance[33] 	2.6044881955452
scalar tree_4_3_u09_r9_network.client[33] 	downloads[33] 	11987
scalar tree_4_3_u09_r9_network.client[33] 	avg_time[33] 	0.004060303025
scalar tree_4_3_u09_r9_network.client[34] 	hdistance[34] 	2.6128320461682
scalar tree_4_3_u09_r9_network.client[34] 	downloads[34] 	11783
scalar tree_4_3_u09_r9_network.client[34] 	avg_time[34] 	0.004120230601
scalar tree_4_3_u09_r9_network.client[35] 	hdistance[35] 	2.6090169378944
scalar tree_4_3_u09_r9_network.client[35] 	downloads[35] 	12044
scalar tree_4_3_u09_r9_network.client[35] 	avg_time[35] 	0.004112750237
scalar tree_4_3_u09_r9_network.client[36] 	hdistance[36] 	2.5382879117204
scalar tree_4_3_u09_r9_network.client[36] 	downloads[36] 	11962
scalar tree_4_3_u09_r9_network.client[36] 	avg_time[36] 	0.003990466842
scalar tree_4_3_u09_r9_network.client[37] 	hdistance[37] 	2.5810754481034
scalar tree_4_3_u09_r9_network.client[37] 	downloads[37] 	11995
scalar tree_4_3_u09_r9_network.client[37] 	avg_time[37] 	0.004020338829
scalar tree_4_3_u09_r9_network.client[38] 	hdistance[38] 	2.5872830440588
scalar tree_4_3_u09_r9_network.client[38] 	downloads[38] 	11984
scalar tree_4_3_u09_r9_network.client[38] 	avg_time[38] 	0.004066585811
scalar tree_4_3_u09_r9_network.client[39] 	hdistance[39] 	2.6512470508932
scalar tree_4_3_u09_r9_network.client[39] 	downloads[39] 	11868
scalar tree_4_3_u09_r9_network.client[39] 	avg_time[39] 	0.004146946778
