version 2
run General-553-20160901-13:19:28-8710
attr a 0.9
attr cd ffc0.25
attr configname General
attr cr lru
attr datetime 20160901-13:19:28
attr experiment General
attr fsize 1
attr inifile hw5115/scenario_Y/omnetp.ini
attr iterationvars "$name=tree_4_3, $un=09, $rep=5, $cd=ffc0.25, $cr=lru, $fsize=1, $a=0.9, $sl=nrr, $ttl=1000, $variance=0.05"
attr iterationvars2 "$name=tree_4_3, $un=09, $rep=5, $cd=ffc0.25, $cr=lru, $fsize=1, $a=0.9, $sl=nrr, $ttl=1000, $variance=0.05, $repetition=0"
attr measurement "$name=tree_4_3, $un=09, $rep=5, $cd=ffc0.25, $cr=lru, $fsize=1, $a=0.9, $sl=nrr, $ttl=1000, $variance=0.05"
attr name tree_4_3
attr network networks.${name}_u${un}_r${rep}_network
attr processid 8710
attr rep 5
attr repetition 0
attr replication #0
attr resultdir results
attr runnumber 553
attr seedset 5
attr sl nrr
attr ttl 1000
attr un 09
attr variance 0.05

scalar . 	a 	0.9
scalar . 	fsize 	1
scalar . 	rep 	5
scalar . 	ttl 	1000
scalar . 	un 	09
scalar . 	variance 	0.05
scalar tree_4_3_u09_r5_network.content_distribution 	repo-0 	0
scalar tree_4_3_u09_r5_network.content_distribution 	client-0 	13
scalar tree_4_3_u09_r5_network.content_distribution 	client-1 	14
scalar tree_4_3_u09_r5_network.content_distribution 	client-2 	15
scalar tree_4_3_u09_r5_network.content_distribution 	client-3 	16
scalar tree_4_3_u09_r5_network.content_distribution 	client-4 	17
scalar tree_4_3_u09_r5_network.content_distribution 	client-5 	18
scalar tree_4_3_u09_r5_network.content_distribution 	client-6 	19
scalar tree_4_3_u09_r5_network.content_distribution 	client-7 	20
scalar tree_4_3_u09_r5_network.content_distribution 	client-8 	21
scalar tree_4_3_u09_r5_network.content_distribution 	client-9 	22
scalar tree_4_3_u09_r5_network.content_distribution 	client-10 	23
scalar tree_4_3_u09_r5_network.content_distribution 	client-11 	24
scalar tree_4_3_u09_r5_network.content_distribution 	client-12 	25
scalar tree_4_3_u09_r5_network.content_distribution 	client-13 	26
scalar tree_4_3_u09_r5_network.content_distribution 	client-14 	27
scalar tree_4_3_u09_r5_network.content_distribution 	client-15 	28
scalar tree_4_3_u09_r5_network.content_distribution 	client-16 	29
scalar tree_4_3_u09_r5_network.content_distribution 	client-17 	30
scalar tree_4_3_u09_r5_network.content_distribution 	client-18 	31
scalar tree_4_3_u09_r5_network.content_distribution 	client-19 	32
scalar tree_4_3_u09_r5_network.content_distribution 	client-20 	33
scalar tree_4_3_u09_r5_network.content_distribution 	client-21 	34
scalar tree_4_3_u09_r5_network.content_distribution 	client-22 	35
scalar tree_4_3_u09_r5_network.content_distribution 	client-23 	36
scalar tree_4_3_u09_r5_network.content_distribution 	client-24 	37
scalar tree_4_3_u09_r5_network.content_distribution 	client-25 	38
scalar tree_4_3_u09_r5_network.content_distribution 	client-26 	39
scalar tree_4_3_u09_r5_network.content_distribution 	repo-0_card 	100000
scalar tree_4_3_u09_r5_network.content_distribution 	repo-0_price 	0
scalar tree_4_3_u09_r5_network.statistics 	stabilization_time 	1735.2
scalar tree_4_3_u09_r5_network.statistics 	p_hit 	0.2456057291237
scalar tree_4_3_u09_r5_network.statistics 	interests 	24561.975
scalar tree_4_3_u09_r5_network.statistics 	data 	16457.925
scalar tree_4_3_u09_r5_network.statistics 	hdistance 	2.5786054507264
scalar tree_4_3_u09_r5_network.statistics 	avg_time 	0.0040617413
scalar tree_4_3_u09_r5_network.statistics 	downloads 	324155
scalar tree_4_3_u09_r5_network.statistics 	total_cost 	0
scalar tree_4_3_u09_r5_network.statistics 	total_replicas 	100000
scalar tree_4_3_u09_r5_network.statistics 	inner_hit 	0.45231139424041
scalar tree_4_3_u09_r5_network.node[0].core_layer 	interests[0] 	180512
scalar tree_4_3_u09_r5_network.node[0].core_layer 	repo_load[0] 	177536
scalar tree_4_3_u09_r5_network.node[0].core_layer 	data[0] 	0
scalar tree_4_3_u09_r5_network.node[0].core_layer 	repo_int[0] 	177536
scalar tree_4_3_u09_r5_network.node[0].content_store 	p_hit[0] 	0.016486438574721
scalar tree_4_3_u09_r5_network.node[0].content_store 	hits[0] 	2976
scalar tree_4_3_u09_r5_network.node[0].content_store 	misses[0] 	177536
scalar tree_4_3_u09_r5_network.node[0].content_store 	decision_yes[0] 	194
scalar tree_4_3_u09_r5_network.node[0].content_store 	decision_no[0] 	177342
scalar tree_4_3_u09_r5_network.node[0].content_store 	decision_ratio[0] 	0.0010927361211247
scalar tree_4_3_u09_r5_network.node[1].core_layer 	interests[1] 	129607
scalar tree_4_3_u09_r5_network.node[1].core_layer 	data[1] 	126512
scalar tree_4_3_u09_r5_network.node[1].content_store 	p_hit[1] 	0.023864451765723
scalar tree_4_3_u09_r5_network.node[1].content_store 	hits[1] 	3093
scalar tree_4_3_u09_r5_network.node[1].content_store 	misses[1] 	126514
scalar tree_4_3_u09_r5_network.node[1].content_store 	decision_yes[1] 	150
scalar tree_4_3_u09_r5_network.node[1].content_store 	decision_no[1] 	126362
scalar tree_4_3_u09_r5_network.node[1].content_store 	decision_ratio[1] 	0.0011856582774757
scalar tree_4_3_u09_r5_network.node[2].core_layer 	interests[2] 	63593
scalar tree_4_3_u09_r5_network.node[2].core_layer 	data[2] 	59962
scalar tree_4_3_u09_r5_network.node[2].content_store 	p_hit[2] 	0.057081754281132
scalar tree_4_3_u09_r5_network.node[2].content_store 	hits[2] 	3630
scalar tree_4_3_u09_r5_network.node[2].content_store 	misses[2] 	59963
scalar tree_4_3_u09_r5_network.node[2].content_store 	decision_yes[2] 	86
scalar tree_4_3_u09_r5_network.node[2].content_store 	decision_no[2] 	59876
scalar tree_4_3_u09_r5_network.node[2].content_store 	decision_ratio[2] 	0.0014342416864014
scalar tree_4_3_u09_r5_network.node[3].core_layer 	interests[3] 	13768
scalar tree_4_3_u09_r5_network.node[3].core_layer 	data[3] 	10128
scalar tree_4_3_u09_r5_network.node[3].content_store 	p_hit[3] 	0.2643811737362
scalar tree_4_3_u09_r5_network.node[3].content_store 	hits[3] 	3640
scalar tree_4_3_u09_r5_network.node[3].content_store 	misses[3] 	10128
scalar tree_4_3_u09_r5_network.node[3].content_store 	decision_yes[3] 	66
scalar tree_4_3_u09_r5_network.node[3].content_store 	decision_no[3] 	10062
scalar tree_4_3_u09_r5_network.node[3].content_store 	decision_ratio[3] 	0.0065165876777251
scalar tree_4_3_u09_r5_network.node[4].core_layer 	interests[4] 	41236
scalar tree_4_3_u09_r5_network.node[4].core_layer 	data[4] 	38490
scalar tree_4_3_u09_r5_network.node[4].content_store 	p_hit[4] 	0.066592297992046
scalar tree_4_3_u09_r5_network.node[4].content_store 	hits[4] 	2746
scalar tree_4_3_u09_r5_network.node[4].content_store 	misses[4] 	38490
scalar tree_4_3_u09_r5_network.node[4].content_store 	decision_yes[4] 	70
scalar tree_4_3_u09_r5_network.node[4].content_store 	decision_no[4] 	38420
scalar tree_4_3_u09_r5_network.node[4].content_store 	decision_ratio[4] 	0.001818654195895
scalar tree_4_3_u09_r5_network.node[5].core_layer 	interests[5] 	29571
scalar tree_4_3_u09_r5_network.node[5].core_layer 	data[5] 	25701
scalar tree_4_3_u09_r5_network.node[5].content_store 	p_hit[5] 	0.13083764499002
scalar tree_4_3_u09_r5_network.node[5].content_store 	hits[5] 	3869
scalar tree_4_3_u09_r5_network.node[5].content_store 	misses[5] 	25702
scalar tree_4_3_u09_r5_network.node[5].content_store 	decision_yes[5] 	68
scalar tree_4_3_u09_r5_network.node[5].content_store 	decision_no[5] 	25633
scalar tree_4_3_u09_r5_network.node[5].content_store 	decision_ratio[5] 	0.0026458114470254
scalar tree_4_3_u09_r5_network.node[6].core_layer 	interests[6] 	13971
scalar tree_4_3_u09_r5_network.node[6].core_layer 	data[6] 	10572
scalar tree_4_3_u09_r5_network.node[6].content_store 	p_hit[6] 	0.24328967146231
scalar tree_4_3_u09_r5_network.node[6].content_store 	hits[6] 	3399
scalar tree_4_3_u09_r5_network.node[6].content_store 	misses[6] 	10572
scalar tree_4_3_u09_r5_network.node[6].content_store 	decision_yes[6] 	67
scalar tree_4_3_u09_r5_network.node[6].content_store 	decision_no[6] 	10505
scalar tree_4_3_u09_r5_network.node[6].content_store 	decision_ratio[6] 	0.0063374952705259
scalar tree_4_3_u09_r5_network.node[7].core_layer 	interests[7] 	35742
scalar tree_4_3_u09_r5_network.node[7].core_layer 	data[7] 	32456
scalar tree_4_3_u09_r5_network.node[7].content_store 	p_hit[7] 	0.091936657154048
scalar tree_4_3_u09_r5_network.node[7].content_store 	hits[7] 	3286
scalar tree_4_3_u09_r5_network.node[7].content_store 	misses[7] 	32456
scalar tree_4_3_u09_r5_network.node[7].content_store 	decision_yes[7] 	69
scalar tree_4_3_u09_r5_network.node[7].content_store 	decision_no[7] 	32387
scalar tree_4_3_u09_r5_network.node[7].content_store 	decision_ratio[7] 	0.0021259551392655
scalar tree_4_3_u09_r5_network.node[8].core_layer 	interests[8] 	27446
scalar tree_4_3_u09_r5_network.node[8].core_layer 	data[8] 	24550
scalar tree_4_3_u09_r5_network.node[8].content_store 	p_hit[8] 	0.10551628652627
scalar tree_4_3_u09_r5_network.node[8].content_store 	hits[8] 	2896
scalar tree_4_3_u09_r5_network.node[8].content_store 	misses[8] 	24550
scalar tree_4_3_u09_r5_network.node[8].content_store 	decision_yes[8] 	64
scalar tree_4_3_u09_r5_network.node[8].content_store 	decision_no[8] 	24486
scalar tree_4_3_u09_r5_network.node[8].content_store 	decision_ratio[8] 	0.0026069246435845
scalar tree_4_3_u09_r5_network.node[9].core_layer 	interests[9] 	21164
scalar tree_4_3_u09_r5_network.node[9].core_layer 	data[9] 	18082
scalar tree_4_3_u09_r5_network.node[9].content_store 	p_hit[9] 	0.14562464562465
scalar tree_4_3_u09_r5_network.node[9].content_store 	hits[9] 	3082
scalar tree_4_3_u09_r5_network.node[9].content_store 	misses[9] 	18082
scalar tree_4_3_u09_r5_network.node[9].content_store 	decision_yes[9] 	55
scalar tree_4_3_u09_r5_network.node[9].content_store 	decision_no[9] 	18027
scalar tree_4_3_u09_r5_network.node[9].content_store 	decision_ratio[9] 	0.0030416989271098
scalar tree_4_3_u09_r5_network.node[10].core_layer 	interests[10] 	43373
scalar tree_4_3_u09_r5_network.node[10].core_layer 	data[10] 	40034
scalar tree_4_3_u09_r5_network.node[10].content_store 	p_hit[10] 	0.076960320936988
scalar tree_4_3_u09_r5_network.node[10].content_store 	hits[10] 	3338
scalar tree_4_3_u09_r5_network.node[10].content_store 	misses[10] 	40035
scalar tree_4_3_u09_r5_network.node[10].content_store 	decision_yes[10] 	82
scalar tree_4_3_u09_r5_network.node[10].content_store 	decision_no[10] 	39952
scalar tree_4_3_u09_r5_network.node[10].content_store 	decision_ratio[10] 	0.0020482589798671
scalar tree_4_3_u09_r5_network.node[11].core_layer 	interests[11] 	29045
scalar tree_4_3_u09_r5_network.node[11].core_layer 	data[11] 	25565
scalar tree_4_3_u09_r5_network.node[11].content_store 	p_hit[11] 	0.11977965226373
scalar tree_4_3_u09_r5_network.node[11].content_store 	hits[11] 	3479
scalar tree_4_3_u09_r5_network.node[11].content_store 	misses[11] 	25566
scalar tree_4_3_u09_r5_network.node[11].content_store 	decision_yes[11] 	60
scalar tree_4_3_u09_r5_network.node[11].content_store 	decision_no[11] 	25505
scalar tree_4_3_u09_r5_network.node[11].content_store 	decision_ratio[11] 	0.0023469587326423
scalar tree_4_3_u09_r5_network.node[12].core_layer 	interests[12] 	11800
scalar tree_4_3_u09_r5_network.node[12].core_layer 	data[12] 	9009
scalar tree_4_3_u09_r5_network.node[12].content_store 	p_hit[12] 	0.2364406779661
scalar tree_4_3_u09_r5_network.node[12].content_store 	hits[12] 	2790
scalar tree_4_3_u09_r5_network.node[12].content_store 	misses[12] 	9010
scalar tree_4_3_u09_r5_network.node[12].content_store 	decision_yes[12] 	54
scalar tree_4_3_u09_r5_network.node[12].content_store 	decision_no[12] 	8955
scalar tree_4_3_u09_r5_network.node[12].content_store 	decision_ratio[12] 	0.005994005994006
scalar tree_4_3_u09_r5_network.node[13].core_layer 	interests[13] 	12275
scalar tree_4_3_u09_r5_network.node[13].core_layer 	data[13] 	8671
scalar tree_4_3_u09_r5_network.node[13].content_store 	p_hit[13] 	0.29360488798371
scalar tree_4_3_u09_r5_network.node[13].content_store 	hits[13] 	3604
scalar tree_4_3_u09_r5_network.node[13].content_store 	misses[13] 	8671
scalar tree_4_3_u09_r5_network.node[13].content_store 	decision_yes[13] 	29
scalar tree_4_3_u09_r5_network.node[13].content_store 	decision_no[13] 	8642
scalar tree_4_3_u09_r5_network.node[13].content_store 	decision_ratio[13] 	0.0033444816053512
scalar tree_4_3_u09_r5_network.node[14].core_layer 	interests[14] 	12753
scalar tree_4_3_u09_r5_network.node[14].core_layer 	data[14] 	8773
scalar tree_4_3_u09_r5_network.node[14].content_store 	p_hit[14] 	0.31208343134949
scalar tree_4_3_u09_r5_network.node[14].content_store 	hits[14] 	3980
scalar tree_4_3_u09_r5_network.node[14].content_store 	misses[14] 	8773
scalar tree_4_3_u09_r5_network.node[14].content_store 	decision_yes[14] 	35
scalar tree_4_3_u09_r5_network.node[14].content_store 	decision_no[14] 	8738
scalar tree_4_3_u09_r5_network.node[14].content_store 	decision_ratio[14] 	0.0039895132793799
scalar tree_4_3_u09_r5_network.node[15].core_layer 	interests[15] 	12905
scalar tree_4_3_u09_r5_network.node[15].core_layer 	data[15] 	8872
scalar tree_4_3_u09_r5_network.node[15].content_store 	p_hit[15] 	0.31251452925223
scalar tree_4_3_u09_r5_network.node[15].content_store 	hits[15] 	4033
scalar tree_4_3_u09_r5_network.node[15].content_store 	misses[15] 	8872
scalar tree_4_3_u09_r5_network.node[15].content_store 	decision_yes[15] 	30
scalar tree_4_3_u09_r5_network.node[15].content_store 	decision_no[15] 	8842
scalar tree_4_3_u09_r5_network.node[15].content_store 	decision_ratio[15] 	0.0033814247069432
scalar tree_4_3_u09_r5_network.node[16].core_layer 	interests[16] 	13137
scalar tree_4_3_u09_r5_network.node[16].core_layer 	data[16] 	8932
scalar tree_4_3_u09_r5_network.node[16].content_store 	p_hit[16] 	0.32008830022075
scalar tree_4_3_u09_r5_network.node[16].content_store 	hits[16] 	4205
scalar tree_4_3_u09_r5_network.node[16].content_store 	misses[16] 	8932
scalar tree_4_3_u09_r5_network.node[16].content_store 	decision_yes[16] 	33
scalar tree_4_3_u09_r5_network.node[16].content_store 	decision_no[16] 	8899
scalar tree_4_3_u09_r5_network.node[16].content_store 	decision_ratio[16] 	0.0036945812807882
scalar tree_4_3_u09_r5_network.node[17].core_layer 	interests[17] 	12590
scalar tree_4_3_u09_r5_network.node[17].core_layer 	data[17] 	8941
scalar tree_4_3_u09_r5_network.node[17].content_store 	p_hit[17] 	0.28983320095314
scalar tree_4_3_u09_r5_network.node[17].content_store 	hits[17] 	3649
scalar tree_4_3_u09_r5_network.node[17].content_store 	misses[17] 	8941
scalar tree_4_3_u09_r5_network.node[17].content_store 	decision_yes[17] 	21
scalar tree_4_3_u09_r5_network.node[17].content_store 	decision_no[17] 	8920
scalar tree_4_3_u09_r5_network.node[17].content_store 	decision_ratio[17] 	0.0023487305670507
scalar tree_4_3_u09_r5_network.node[18].core_layer 	interests[18] 	12720
scalar tree_4_3_u09_r5_network.node[18].core_layer 	data[18] 	8635
scalar tree_4_3_u09_r5_network.node[18].content_store 	p_hit[18] 	0.32114779874214
scalar tree_4_3_u09_r5_network.node[18].content_store 	hits[18] 	4085
scalar tree_4_3_u09_r5_network.node[18].content_store 	misses[18] 	8635
scalar tree_4_3_u09_r5_network.node[18].content_store 	decision_yes[18] 	20
scalar tree_4_3_u09_r5_network.node[18].content_store 	decision_no[18] 	8615
scalar tree_4_3_u09_r5_network.node[18].content_store 	decision_ratio[18] 	0.0023161551823972
scalar tree_4_3_u09_r5_network.node[19].core_layer 	interests[19] 	12569
scalar tree_4_3_u09_r5_network.node[19].core_layer 	data[19] 	8672
scalar tree_4_3_u09_r5_network.node[19].content_store 	p_hit[19] 	0.31004853210279
scalar tree_4_3_u09_r5_network.node[19].content_store 	hits[19] 	3897
scalar tree_4_3_u09_r5_network.node[19].content_store 	misses[19] 	8672
scalar tree_4_3_u09_r5_network.node[19].content_store 	decision_yes[19] 	18
scalar tree_4_3_u09_r5_network.node[19].content_store 	decision_no[19] 	8654
scalar tree_4_3_u09_r5_network.node[19].content_store 	decision_ratio[19] 	0.0020756457564576
scalar tree_4_3_u09_r5_network.node[20].core_layer 	interests[20] 	12889
scalar tree_4_3_u09_r5_network.node[20].core_layer 	data[20] 	8873
scalar tree_4_3_u09_r5_network.node[20].content_store 	p_hit[20] 	0.31158352083172
scalar tree_4_3_u09_r5_network.node[20].content_store 	hits[20] 	4016
scalar tree_4_3_u09_r5_network.node[20].content_store 	misses[20] 	8873
scalar tree_4_3_u09_r5_network.node[20].content_store 	decision_yes[20] 	28
scalar tree_4_3_u09_r5_network.node[20].content_store 	decision_no[20] 	8845
scalar tree_4_3_u09_r5_network.node[20].content_store 	decision_ratio[20] 	0.0031556407077651
scalar tree_4_3_u09_r5_network.node[21].core_layer 	interests[21] 	12437
scalar tree_4_3_u09_r5_network.node[21].core_layer 	data[21] 	8879
scalar tree_4_3_u09_r5_network.node[21].content_store 	p_hit[21] 	0.28608185253679
scalar tree_4_3_u09_r5_network.node[21].content_store 	hits[21] 	3558
scalar tree_4_3_u09_r5_network.node[21].content_store 	misses[21] 	8879
scalar tree_4_3_u09_r5_network.node[21].content_store 	decision_yes[21] 	28
scalar tree_4_3_u09_r5_network.node[21].content_store 	decision_no[21] 	8851
scalar tree_4_3_u09_r5_network.node[21].content_store 	decision_ratio[21] 	0.0031535082779592
scalar tree_4_3_u09_r5_network.node[22].core_layer 	interests[22] 	12544
scalar tree_4_3_u09_r5_network.node[22].core_layer 	data[22] 	8898
scalar tree_4_3_u09_r5_network.node[22].content_store 	p_hit[22] 	0.2906568877551
scalar tree_4_3_u09_r5_network.node[22].content_store 	hits[22] 	3646
scalar tree_4_3_u09_r5_network.node[22].content_store 	misses[22] 	8898
scalar tree_4_3_u09_r5_network.node[22].content_store 	decision_yes[22] 	23
scalar tree_4_3_u09_r5_network.node[22].content_store 	decision_no[22] 	8875
scalar tree_4_3_u09_r5_network.node[22].content_store 	decision_ratio[22] 	0.0025848505282086
scalar tree_4_3_u09_r5_network.node[23].core_layer 	interests[23] 	12784
scalar tree_4_3_u09_r5_network.node[23].core_layer 	data[23] 	8852
scalar tree_4_3_u09_r5_network.node[23].content_store 	p_hit[23] 	0.3075719649562
scalar tree_4_3_u09_r5_network.node[23].content_store 	hits[23] 	3932
scalar tree_4_3_u09_r5_network.node[23].content_store 	misses[23] 	8852
scalar tree_4_3_u09_r5_network.node[23].content_store 	decision_yes[23] 	34
scalar tree_4_3_u09_r5_network.node[23].content_store 	decision_no[23] 	8818
scalar tree_4_3_u09_r5_network.node[23].content_store 	decision_ratio[23] 	0.0038409399005874
scalar tree_4_3_u09_r5_network.node[24].core_layer 	interests[24] 	12946
scalar tree_4_3_u09_r5_network.node[24].core_layer 	data[24] 	8822
scalar tree_4_3_u09_r5_network.node[24].content_store 	p_hit[24] 	0.31855399351151
scalar tree_4_3_u09_r5_network.node[24].content_store 	hits[24] 	4124
scalar tree_4_3_u09_r5_network.node[24].content_store 	misses[24] 	8822
scalar tree_4_3_u09_r5_network.node[24].content_store 	decision_yes[24] 	23
scalar tree_4_3_u09_r5_network.node[24].content_store 	decision_no[24] 	8799
scalar tree_4_3_u09_r5_network.node[24].content_store 	decision_ratio[24] 	0.0026071185672183
scalar tree_4_3_u09_r5_network.node[25].core_layer 	interests[25] 	12692
scalar tree_4_3_u09_r5_network.node[25].core_layer 	data[25] 	8706
scalar tree_4_3_u09_r5_network.node[25].content_store 	p_hit[25] 	0.31405609832966
scalar tree_4_3_u09_r5_network.node[25].content_store 	hits[25] 	3986
scalar tree_4_3_u09_r5_network.node[25].content_store 	misses[25] 	8706
scalar tree_4_3_u09_r5_network.node[25].content_store 	decision_yes[25] 	31
scalar tree_4_3_u09_r5_network.node[25].content_store 	decision_no[25] 	8675
scalar tree_4_3_u09_r5_network.node[25].content_store 	decision_ratio[25] 	0.003560762692396
scalar tree_4_3_u09_r5_network.node[26].core_layer 	interests[26] 	12321
scalar tree_4_3_u09_r5_network.node[26].core_layer 	data[26] 	8558
scalar tree_4_3_u09_r5_network.node[26].content_store 	p_hit[26] 	0.30541352162974
scalar tree_4_3_u09_r5_network.node[26].content_store 	hits[26] 	3763
scalar tree_4_3_u09_r5_network.node[26].content_store 	misses[26] 	8558
scalar tree_4_3_u09_r5_network.node[26].content_store 	decision_yes[26] 	34
scalar tree_4_3_u09_r5_network.node[26].content_store 	decision_no[26] 	8524
scalar tree_4_3_u09_r5_network.node[26].content_store 	decision_ratio[26] 	0.003972890862351
scalar tree_4_3_u09_r5_network.node[27].core_layer 	interests[27] 	12392
scalar tree_4_3_u09_r5_network.node[27].core_layer 	data[27] 	8767
scalar tree_4_3_u09_r5_network.node[27].content_store 	p_hit[27] 	0.29252743705617
scalar tree_4_3_u09_r5_network.node[27].content_store 	hits[27] 	3625
scalar tree_4_3_u09_r5_network.node[27].content_store 	misses[27] 	8767
scalar tree_4_3_u09_r5_network.node[27].content_store 	decision_yes[27] 	21
scalar tree_4_3_u09_r5_network.node[27].content_store 	decision_no[27] 	8746
scalar tree_4_3_u09_r5_network.node[27].content_store 	decision_ratio[27] 	0.0023953461845557
scalar tree_4_3_u09_r5_network.node[28].core_layer 	interests[28] 	12451
scalar tree_4_3_u09_r5_network.node[28].core_layer 	data[28] 	8755
scalar tree_4_3_u09_r5_network.node[28].content_store 	p_hit[28] 	0.29684362701791
scalar tree_4_3_u09_r5_network.node[28].content_store 	hits[28] 	3696
scalar tree_4_3_u09_r5_network.node[28].content_store 	misses[28] 	8755
scalar tree_4_3_u09_r5_network.node[28].content_store 	decision_yes[28] 	25
scalar tree_4_3_u09_r5_network.node[28].content_store 	decision_no[28] 	8730
scalar tree_4_3_u09_r5_network.node[28].content_store 	decision_ratio[28] 	0.0028555111364934
scalar tree_4_3_u09_r5_network.node[29].core_layer 	interests[29] 	12908
scalar tree_4_3_u09_r5_network.node[29].core_layer 	data[29] 	8710
scalar tree_4_3_u09_r5_network.node[29].content_store 	p_hit[29] 	0.32522466687326
scalar tree_4_3_u09_r5_network.node[29].content_store 	hits[29] 	4198
scalar tree_4_3_u09_r5_network.node[29].content_store 	misses[29] 	8710
scalar tree_4_3_u09_r5_network.node[29].content_store 	decision_yes[29] 	19
scalar tree_4_3_u09_r5_network.node[29].content_store 	decision_no[29] 	8691
scalar tree_4_3_u09_r5_network.node[29].content_store 	decision_ratio[29] 	0.0021814006888634
scalar tree_4_3_u09_r5_network.node[30].core_layer 	interests[30] 	12514
scalar tree_4_3_u09_r5_network.node[30].core_layer 	data[30] 	8738
scalar tree_4_3_u09_r5_network.node[30].content_store 	p_hit[30] 	0.30174204890523
scalar tree_4_3_u09_r5_network.node[30].content_store 	hits[30] 	3776
scalar tree_4_3_u09_r5_network.node[30].content_store 	misses[30] 	8738
scalar tree_4_3_u09_r5_network.node[30].content_store 	decision_yes[30] 	31
scalar tree_4_3_u09_r5_network.node[30].content_store 	decision_no[30] 	8707
scalar tree_4_3_u09_r5_network.node[30].content_store 	decision_ratio[30] 	0.0035477225909819
scalar tree_4_3_u09_r5_network.node[31].core_layer 	interests[31] 	12342
scalar tree_4_3_u09_r5_network.node[31].core_layer 	data[31] 	8716
scalar tree_4_3_u09_r5_network.node[31].content_store 	p_hit[31] 	0.29379355047804
scalar tree_4_3_u09_r5_network.node[31].content_store 	hits[31] 	3626
scalar tree_4_3_u09_r5_network.node[31].content_store 	misses[31] 	8716
scalar tree_4_3_u09_r5_network.node[31].content_store 	decision_yes[31] 	22
scalar tree_4_3_u09_r5_network.node[31].content_store 	decision_no[31] 	8694
scalar tree_4_3_u09_r5_network.node[31].content_store 	decision_ratio[31] 	0.002524093620927
scalar tree_4_3_u09_r5_network.node[32].core_layer 	interests[32] 	12868
scalar tree_4_3_u09_r5_network.node[32].core_layer 	data[32] 	8902
scalar tree_4_3_u09_r5_network.node[32].content_store 	p_hit[32] 	0.3082064034815
scalar tree_4_3_u09_r5_network.node[32].content_store 	hits[32] 	3966
scalar tree_4_3_u09_r5_network.node[32].content_store 	misses[32] 	8902
scalar tree_4_3_u09_r5_network.node[32].content_store 	decision_yes[32] 	22
scalar tree_4_3_u09_r5_network.node[32].content_store 	decision_no[32] 	8880
scalar tree_4_3_u09_r5_network.node[32].content_store 	decision_ratio[32] 	0.0024713547517412
scalar tree_4_3_u09_r5_network.node[33].core_layer 	interests[33] 	12813
scalar tree_4_3_u09_r5_network.node[33].core_layer 	data[33] 	8823
scalar tree_4_3_u09_r5_network.node[33].content_store 	p_hit[33] 	0.31140248185437
scalar tree_4_3_u09_r5_network.node[33].content_store 	hits[33] 	3990
scalar tree_4_3_u09_r5_network.node[33].content_store 	misses[33] 	8823
scalar tree_4_3_u09_r5_network.node[33].content_store 	decision_yes[33] 	24
scalar tree_4_3_u09_r5_network.node[33].content_store 	decision_no[33] 	8799
scalar tree_4_3_u09_r5_network.node[33].content_store 	decision_ratio[33] 	0.0027201632097926
scalar tree_4_3_u09_r5_network.node[34].core_layer 	interests[34] 	12877
scalar tree_4_3_u09_r5_network.node[34].core_layer 	data[34] 	8819
scalar tree_4_3_u09_r5_network.node[34].content_store 	p_hit[34] 	0.31513551293003
scalar tree_4_3_u09_r5_network.node[34].content_store 	hits[34] 	4058
scalar tree_4_3_u09_r5_network.node[34].content_store 	misses[34] 	8819
scalar tree_4_3_u09_r5_network.node[34].content_store 	decision_yes[34] 	29
scalar tree_4_3_u09_r5_network.node[34].content_store 	decision_no[34] 	8790
scalar tree_4_3_u09_r5_network.node[34].content_store 	decision_ratio[34] 	0.0032883546887402
scalar tree_4_3_u09_r5_network.node[35].core_layer 	interests[35] 	12493
scalar tree_4_3_u09_r5_network.node[35].core_layer 	data[35] 	8811
scalar tree_4_3_u09_r5_network.node[35].content_store 	p_hit[35] 	0.29472504602577
scalar tree_4_3_u09_r5_network.node[35].content_store 	hits[35] 	3682
scalar tree_4_3_u09_r5_network.node[35].content_store 	misses[35] 	8811
scalar tree_4_3_u09_r5_network.node[35].content_store 	decision_yes[35] 	25
scalar tree_4_3_u09_r5_network.node[35].content_store 	decision_no[35] 	8786
scalar tree_4_3_u09_r5_network.node[35].content_store 	decision_ratio[35] 	0.0028373623879242
scalar tree_4_3_u09_r5_network.node[36].core_layer 	interests[36] 	12770
scalar tree_4_3_u09_r5_network.node[36].core_layer 	data[36] 	8879
scalar tree_4_3_u09_r5_network.node[36].content_store 	p_hit[36] 	0.30454189506656
scalar tree_4_3_u09_r5_network.node[36].content_store 	hits[36] 	3889
scalar tree_4_3_u09_r5_network.node[36].content_store 	misses[36] 	8881
scalar tree_4_3_u09_r5_network.node[36].content_store 	decision_yes[36] 	27
scalar tree_4_3_u09_r5_network.node[36].content_store 	decision_no[36] 	8852
scalar tree_4_3_u09_r5_network.node[36].content_store 	decision_ratio[36] 	0.0030408829823178
scalar tree_4_3_u09_r5_network.node[37].core_layer 	interests[37] 	12773
scalar tree_4_3_u09_r5_network.node[37].core_layer 	data[37] 	8789
scalar tree_4_3_u09_r5_network.node[37].content_store 	p_hit[37] 	0.31182964064824
scalar tree_4_3_u09_r5_network.node[37].content_store 	hits[37] 	3983
scalar tree_4_3_u09_r5_network.node[37].content_store 	misses[37] 	8790
scalar tree_4_3_u09_r5_network.node[37].content_store 	decision_yes[37] 	31
scalar tree_4_3_u09_r5_network.node[37].content_store 	decision_no[37] 	8758
scalar tree_4_3_u09_r5_network.node[37].content_store 	decision_ratio[37] 	0.0035271361929685
scalar tree_4_3_u09_r5_network.node[38].core_layer 	interests[38] 	12675
scalar tree_4_3_u09_r5_network.node[38].core_layer 	data[38] 	8744
scalar tree_4_3_u09_r5_network.node[38].content_store 	p_hit[38] 	0.31013806706114
scalar tree_4_3_u09_r5_network.node[38].content_store 	hits[38] 	3931
scalar tree_4_3_u09_r5_network.node[38].content_store 	misses[38] 	8744
scalar tree_4_3_u09_r5_network.node[38].content_store 	decision_yes[38] 	28
scalar tree_4_3_u09_r5_network.node[38].content_store 	decision_no[38] 	8716
scalar tree_4_3_u09_r5_network.node[38].content_store 	decision_ratio[38] 	0.0032021957913998
scalar tree_4_3_u09_r5_network.node[39].core_layer 	interests[39] 	12213
scalar tree_4_3_u09_r5_network.node[39].core_layer 	data[39] 	8719
scalar tree_4_3_u09_r5_network.node[39].content_store 	p_hit[39] 	0.28608859412102
scalar tree_4_3_u09_r5_network.node[39].content_store 	hits[39] 	3494
scalar tree_4_3_u09_r5_network.node[39].content_store 	misses[39] 	8719
scalar tree_4_3_u09_r5_network.node[39].content_store 	decision_yes[39] 	26
scalar tree_4_3_u09_r5_network.node[39].content_store 	decision_no[39] 	8693
scalar tree_4_3_u09_r5_network.node[39].content_store 	decision_ratio[39] 	0.002981993347861
scalar tree_4_3_u09_r5_network.client[13] 	hdistance[13] 	2.6326066829392
scalar tree_4_3_u09_r5_network.client[13] 	downloads[13] 	11881
scalar tree_4_3_u09_r5_network.client[13] 	avg_time[13] 	0.004134724615
scalar tree_4_3_u09_r5_network.client[14] 	hdistance[14] 	2.5798128004048
scalar tree_4_3_u09_r5_network.client[14] 	downloads[14] 	11859
scalar tree_4_3_u09_r5_network.client[14] 	avg_time[14] 	0.004062902844
scalar tree_4_3_u09_r5_network.client[15] 	hdistance[15] 	2.5576059850374
scalar tree_4_3_u09_r5_network.client[15] 	downloads[15] 	12030
scalar tree_4_3_u09_r5_network.client[15] 	avg_time[15] 	0.004027095914
scalar tree_4_3_u09_r5_network.client[16] 	hdistance[16] 	2.5421587926509
scalar tree_4_3_u09_r5_network.client[16] 	downloads[16] 	12192
scalar tree_4_3_u09_r5_network.client[16] 	avg_time[16] 	0.004009511404
scalar tree_4_3_u09_r5_network.client[17] 	hdistance[17] 	2.6222866611433
scalar tree_4_3_u09_r5_network.client[17] 	downloads[17] 	12070
scalar tree_4_3_u09_r5_network.client[17] 	avg_time[17] 	0.004155046569
scalar tree_4_3_u09_r5_network.client[18] 	hdistance[18] 	2.5110415432778
scalar tree_4_3_u09_r5_network.client[18] 	downloads[18] 	11819
scalar tree_4_3_u09_r5_network.client[18] 	avg_time[18] 	0.00395396945
scalar tree_4_3_u09_r5_network.client[19] 	hdistance[19] 	2.5476591444931
scalar tree_4_3_u09_r5_network.client[19] 	downloads[19] 	11876
scalar tree_4_3_u09_r5_network.client[19] 	avg_time[19] 	0.004002354742
scalar tree_4_3_u09_r5_network.client[20] 	hdistance[20] 	2.5313272877164
scalar tree_4_3_u09_r5_network.client[20] 	downloads[20] 	12130
scalar tree_4_3_u09_r5_network.client[20] 	avg_time[20] 	0.003983179168
scalar tree_4_3_u09_r5_network.client[21] 	hdistance[21] 	2.6051477282132
scalar tree_4_3_u09_r5_network.client[21] 	downloads[21] 	12083
scalar tree_4_3_u09_r5_network.client[21] 	avg_time[21] 	0.004122152059
scalar tree_4_3_u09_r5_network.client[22] 	hdistance[22] 	2.6136718429053
scalar tree_4_3_u09_r5_network.client[22] 	downloads[22] 	12171
scalar tree_4_3_u09_r5_network.client[22] 	avg_time[22] 	0.004145753241
scalar tree_4_3_u09_r5_network.client[23] 	hdistance[23] 	2.5705475456288
scalar tree_4_3_u09_r5_network.client[23] 	downloads[23] 	11999
scalar tree_4_3_u09_r5_network.client[23] 	avg_time[23] 	0.004052834743
scalar tree_4_3_u09_r5_network.client[24] 	hdistance[24] 	2.5519728116711
scalar tree_4_3_u09_r5_network.client[24] 	downloads[24] 	12064
scalar tree_4_3_u09_r5_network.client[24] 	avg_time[24] 	0.004025527496
scalar tree_4_3_u09_r5_network.client[25] 	hdistance[25] 	2.5596376446905
scalar tree_4_3_u09_r5_network.client[25] 	downloads[25] 	11922
scalar tree_4_3_u09_r5_network.client[25] 	avg_time[25] 	0.00403421948
scalar tree_4_3_u09_r5_network.client[26] 	hdistance[26] 	2.6179365348719
scalar tree_4_3_u09_r5_network.client[26] 	downloads[26] 	11786
scalar tree_4_3_u09_r5_network.client[26] 	avg_time[26] 	0.004107242953
scalar tree_4_3_u09_r5_network.client[27] 	hdistance[27] 	2.6455590734878
scalar tree_4_3_u09_r5_network.client[27] 	downloads[27] 	12002
scalar tree_4_3_u09_r5_network.client[27] 	avg_time[27] 	0.004150305303
scalar tree_4_3_u09_r5_network.client[28] 	hdistance[28] 	2.6106349338437
scalar tree_4_3_u09_r5_network.client[28] 	downloads[28] 	12017
scalar tree_4_3_u09_r5_network.client[28] 	avg_time[28] 	0.004113502846
scalar tree_4_3_u09_r5_network.client[29] 	hdistance[29] 	2.5262983242077
scalar tree_4_3_u09_r5_network.client[29] 	downloads[29] 	12054
scalar tree_4_3_u09_r5_network.client[29] 	avg_time[29] 	0.003970471493
scalar tree_4_3_u09_r5_network.client[30] 	hdistance[30] 	2.5910074937552
scalar tree_4_3_u09_r5_network.client[30] 	downloads[30] 	12010
scalar tree_4_3_u09_r5_network.client[30] 	avg_time[30] 	0.004099247625
scalar tree_4_3_u09_r5_network.client[31] 	hdistance[31] 	2.6159899539556
scalar tree_4_3_u09_r5_network.client[31] 	downloads[31] 	11945
scalar tree_4_3_u09_r5_network.client[31] 	avg_time[31] 	0.004134614002
scalar tree_4_3_u09_r5_network.client[32] 	hdistance[32] 	2.5523722778836
scalar tree_4_3_u09_r5_network.client[32] 	downloads[32] 	12077
scalar tree_4_3_u09_r5_network.client[32] 	avg_time[32] 	0.004028480896
scalar tree_4_3_u09_r5_network.client[33] 	hdistance[33] 	2.5539305301645
scalar tree_4_3_u09_r5_network.client[33] 	downloads[33] 	12034
scalar tree_4_3_u09_r5_network.client[33] 	avg_time[33] 	0.004018718617
scalar tree_4_3_u09_r5_network.client[34] 	hdistance[34] 	2.5482102815381
scalar tree_4_3_u09_r5_network.client[34] 	downloads[34] 	12041
scalar tree_4_3_u09_r5_network.client[34] 	avg_time[34] 	0.004011956126
scalar tree_4_3_u09_r5_network.client[35] 	hdistance[35] 	2.6177737286732
scalar tree_4_3_u09_r5_network.client[35] 	downloads[35] 	12074
scalar tree_4_3_u09_r5_network.client[35] 	avg_time[35] 	0.004122905701
scalar tree_4_3_u09_r5_network.client[36] 	hdistance[36] 	2.5674668874172
scalar tree_4_3_u09_r5_network.client[36] 	downloads[36] 	12080
scalar tree_4_3_u09_r5_network.client[36] 	avg_time[36] 	0.004034874777
scalar tree_4_3_u09_r5_network.client[37] 	hdistance[37] 	2.5709620698317
scalar tree_4_3_u09_r5_network.client[37] 	downloads[37] 	11943
scalar tree_4_3_u09_r5_network.client[37] 	avg_time[37] 	0.004042364949
scalar tree_4_3_u09_r5_network.client[38] 	hdistance[38] 	2.5507789719237
scalar tree_4_3_u09_r5_network.client[38] 	downloads[38] 	12003
scalar tree_4_3_u09_r5_network.client[38] 	avg_time[38] 	0.004009161369
scalar tree_4_3_u09_r5_network.client[39] 	hdistance[39] 	2.6279496372884
scalar tree_4_3_u09_r5_network.client[39] 	downloads[39] 	11993
scalar tree_4_3_u09_r5_network.client[39] 	avg_time[39] 	0.004113896744
