version 2
run General-37-20160826-10:52:17-19693
attr D fix0.05
attr F nrr
attr R lru
attr a 0.9
attr configname General
attr datetime 20160826-10:52:17
attr experiment General
attr inifile hw5115/scenario_C/omnetp.ini
attr iterationvars "$net=tiger, $rep=5, $a=0.9, $F=nrr, $D=fix0.05, $R=lru, $window=60, $variance=0.05, $mytime=600"
attr iterationvars2 "$net=tiger, $rep=5, $a=0.9, $F=nrr, $D=fix0.05, $R=lru, $window=60, $variance=0.05, $mytime=600, $repetition=0"
attr measurement "$net=tiger, $rep=5, $a=0.9, $F=nrr, $D=fix0.05, $R=lru, $window=60, $variance=0.05, $mytime=600"
attr mytime 600
attr net tiger
attr network networks.${net=tiger}_network
attr processid 19693
attr rep 5
attr repetition 0
attr replication #0
attr resultdir results
attr runnumber 37
attr seedset 5
attr variance 0.05
attr window 60

scalar . 	a 	0.9
scalar . 	mytime 	600
scalar . 	rep 	5
scalar . 	variance 	0.05
scalar . 	window 	60
scalar tiger_network.content_distribution 	repo-0 	9
scalar tiger_network.content_distribution 	repo-1 	14
scalar tiger_network.content_distribution 	repo-2 	5
scalar tiger_network.content_distribution 	repo-3 	1
scalar tiger_network.content_distribution 	repo-4 	4
scalar tiger_network.content_distribution 	repo-5 	0
scalar tiger_network.content_distribution 	repo-6 	16
scalar tiger_network.content_distribution 	repo-7 	18
scalar tiger_network.content_distribution 	repo-8 	20
scalar tiger_network.content_distribution 	repo-9 	10
scalar tiger_network.content_distribution 	repo-10 	2
scalar tiger_network.content_distribution 	repo-11 	13
scalar tiger_network.content_distribution 	repo-12 	12
scalar tiger_network.content_distribution 	repo-13 	19
scalar tiger_network.content_distribution 	repo-14 	8
scalar tiger_network.content_distribution 	repo-15 	17
scalar tiger_network.content_distribution 	client-0 	21
scalar tiger_network.content_distribution 	client-1 	9
scalar tiger_network.content_distribution 	client-2 	6
scalar tiger_network.content_distribution 	client-3 	2
scalar tiger_network.content_distribution 	client-4 	14
scalar tiger_network.content_distribution 	client-5 	8
scalar tiger_network.content_distribution 	client-6 	17
scalar tiger_network.content_distribution 	client-7 	0
scalar tiger_network.content_distribution 	client-8 	19
scalar tiger_network.content_distribution 	client-9 	10
scalar tiger_network.content_distribution 	client-10 	13
scalar tiger_network.content_distribution 	client-11 	1
scalar tiger_network.content_distribution 	client-12 	3
scalar tiger_network.content_distribution 	client-13 	18
scalar tiger_network.content_distribution 	client-14 	15
scalar tiger_network.content_distribution 	client-15 	16
scalar tiger_network.content_distribution 	client-16 	12
scalar tiger_network.content_distribution 	client-17 	11
scalar tiger_network.content_distribution 	client-18 	7
scalar tiger_network.content_distribution 	client-19 	4
scalar tiger_network.content_distribution 	client-20 	5
scalar tiger_network.content_distribution 	client-21 	20
scalar tiger_network.content_distribution 	repo-0_card 	6289
scalar tiger_network.content_distribution 	repo-0_price 	0
scalar tiger_network.content_distribution 	repo-1_card 	6243
scalar tiger_network.content_distribution 	repo-1_price 	0
scalar tiger_network.content_distribution 	repo-2_card 	6284
scalar tiger_network.content_distribution 	repo-2_price 	0
scalar tiger_network.content_distribution 	repo-3_card 	6071
scalar tiger_network.content_distribution 	repo-3_price 	0
scalar tiger_network.content_distribution 	repo-4_card 	6173
scalar tiger_network.content_distribution 	repo-4_price 	0
scalar tiger_network.content_distribution 	repo-5_card 	6278
scalar tiger_network.content_distribution 	repo-5_price 	0
scalar tiger_network.content_distribution 	repo-6_card 	6354
scalar tiger_network.content_distribution 	repo-6_price 	0
scalar tiger_network.content_distribution 	repo-7_card 	6254
scalar tiger_network.content_distribution 	repo-7_price 	0
scalar tiger_network.content_distribution 	repo-8_card 	6276
scalar tiger_network.content_distribution 	repo-8_price 	0
scalar tiger_network.content_distribution 	repo-9_card 	6208
scalar tiger_network.content_distribution 	repo-9_price 	0
scalar tiger_network.content_distribution 	repo-10_card 	6278
scalar tiger_network.content_distribution 	repo-10_price 	0
scalar tiger_network.content_distribution 	repo-11_card 	6229
scalar tiger_network.content_distribution 	repo-11_price 	0
scalar tiger_network.content_distribution 	repo-12_card 	6192
scalar tiger_network.content_distribution 	repo-12_price 	0
scalar tiger_network.content_distribution 	repo-13_card 	6316
scalar tiger_network.content_distribution 	repo-13_price 	0
scalar tiger_network.content_distribution 	repo-14_card 	6239
scalar tiger_network.content_distribution 	repo-14_price 	0
scalar tiger_network.content_distribution 	repo-15_card 	6316
scalar tiger_network.content_distribution 	repo-15_price 	0
scalar tiger_network.statistics 	stabilization_time 	681.8
scalar tiger_network.statistics 	p_hit 	0.15360193731295
scalar tiger_network.statistics 	interests 	34356.727272727
scalar tiger_network.statistics 	data 	22379.363636364
scalar tiger_network.statistics 	hdistance 	2.4769820276989
scalar tiger_network.statistics 	avg_time 	0.000715663926
scalar tiger_network.statistics 	downloads 	263502
scalar tiger_network.statistics 	total_cost 	0
scalar tiger_network.statistics 	total_replicas 	100000
scalar tiger_network.statistics 	inner_hit 	0.39118488664223
scalar tiger_network.node[0].core_layer 	interests[0] 	44503
scalar tiger_network.node[0].core_layer 	repo_load[0] 	10772
scalar tiger_network.node[0].core_layer 	data[0] 	29606
scalar tiger_network.node[0].core_layer 	repo_int[0] 	160424
scalar tiger_network.node[0].content_store 	p_hit[0] 	0.092690380423792
scalar tiger_network.node[0].content_store 	hits[0] 	4125
scalar tiger_network.node[0].content_store 	misses[0] 	40378
scalar tiger_network.node[0].content_store 	decision_yes[0] 	2053
scalar tiger_network.node[0].content_store 	decision_no[0] 	38325
scalar tiger_network.node[0].content_store 	decision_ratio[0] 	0.050844519292684
scalar tiger_network.node[1].core_layer 	interests[1] 	49069
scalar tiger_network.node[1].core_layer 	repo_load[1] 	10165
scalar tiger_network.node[1].core_layer 	data[1] 	35056
scalar tiger_network.node[1].content_store 	p_hit[1] 	0.07839980435713
scalar tiger_network.node[1].content_store 	hits[1] 	3847
scalar tiger_network.node[1].content_store 	misses[1] 	45222
scalar tiger_network.node[1].content_store 	decision_yes[1] 	2260
scalar tiger_network.node[1].content_store 	decision_no[1] 	42961
scalar tiger_network.node[1].content_store 	decision_ratio[1] 	0.049976780699233
scalar tiger_network.node[2].core_layer 	interests[2] 	58241
scalar tiger_network.node[2].core_layer 	repo_load[2] 	10356
scalar tiger_network.node[2].core_layer 	data[2] 	43964
scalar tiger_network.node[2].content_store 	p_hit[2] 	0.067323706667125
scalar tiger_network.node[2].content_store 	hits[2] 	3921
scalar tiger_network.node[2].content_store 	misses[2] 	54320
scalar tiger_network.node[2].content_store 	decision_yes[2] 	2727
scalar tiger_network.node[2].content_store 	decision_no[2] 	51593
scalar tiger_network.node[2].content_store 	decision_ratio[2] 	0.050202503681885
scalar tiger_network.node[3].core_layer 	interests[3] 	46059
scalar tiger_network.node[3].core_layer 	data[3] 	42100
scalar tiger_network.node[3].content_store 	p_hit[3] 	0.085954970798324
scalar tiger_network.node[3].content_store 	hits[3] 	3959
scalar tiger_network.node[3].content_store 	misses[3] 	42100
scalar tiger_network.node[3].content_store 	decision_yes[3] 	2095
scalar tiger_network.node[3].content_store 	decision_no[3] 	40005
scalar tiger_network.node[3].content_store 	decision_ratio[3] 	0.049762470308789
scalar tiger_network.node[4].core_layer 	interests[4] 	39977
scalar tiger_network.node[4].core_layer 	repo_load[4] 	9828
scalar tiger_network.node[4].core_layer 	data[4] 	26012
scalar tiger_network.node[4].content_store 	p_hit[4] 	0.10348450358956
scalar tiger_network.node[4].content_store 	hits[4] 	4137
scalar tiger_network.node[4].content_store 	misses[4] 	35840
scalar tiger_network.node[4].content_store 	decision_yes[4] 	1765
scalar tiger_network.node[4].content_store 	decision_no[4] 	34075
scalar tiger_network.node[4].content_store 	decision_ratio[4] 	0.049246651785714
scalar tiger_network.node[5].core_layer 	interests[5] 	25395
scalar tiger_network.node[5].core_layer 	repo_load[5] 	9912
scalar tiger_network.node[5].core_layer 	data[5] 	10262
scalar tiger_network.node[5].content_store 	p_hit[5] 	0.20559165189998
scalar tiger_network.node[5].content_store 	hits[5] 	5221
scalar tiger_network.node[5].content_store 	misses[5] 	20174
scalar tiger_network.node[5].content_store 	decision_yes[5] 	997
scalar tiger_network.node[5].content_store 	decision_no[5] 	19177
scalar tiger_network.node[5].content_store 	decision_ratio[5] 	0.049420045603252
scalar tiger_network.node[6].core_layer 	interests[6] 	27973
scalar tiger_network.node[6].core_layer 	data[6] 	22671
scalar tiger_network.node[6].content_store 	p_hit[6] 	0.18953991348801
scalar tiger_network.node[6].content_store 	hits[6] 	5302
scalar tiger_network.node[6].content_store 	misses[6] 	22671
scalar tiger_network.node[6].content_store 	decision_yes[6] 	1101
scalar tiger_network.node[6].content_store 	decision_no[6] 	21570
scalar tiger_network.node[6].content_store 	decision_ratio[6] 	0.048564245070795
scalar tiger_network.node[7].core_layer 	interests[7] 	33285
scalar tiger_network.node[7].core_layer 	data[7] 	28882
scalar tiger_network.node[7].content_store 	p_hit[7] 	0.1322818086225
scalar tiger_network.node[7].content_store 	hits[7] 	4403
scalar tiger_network.node[7].content_store 	misses[7] 	28882
scalar tiger_network.node[7].content_store 	decision_yes[7] 	1463
scalar tiger_network.node[7].content_store 	decision_no[7] 	27419
scalar tiger_network.node[7].content_store 	decision_ratio[7] 	0.050654386815317
scalar tiger_network.node[8].core_layer 	interests[8] 	46508
scalar tiger_network.node[8].core_layer 	repo_load[8] 	10014
scalar tiger_network.node[8].core_layer 	data[8] 	31979
scalar tiger_network.node[8].content_store 	p_hit[8] 	0.097080072245635
scalar tiger_network.node[8].content_store 	hits[8] 	4515
scalar tiger_network.node[8].content_store 	misses[8] 	41993
scalar tiger_network.node[8].content_store 	decision_yes[8] 	2068
scalar tiger_network.node[8].content_store 	decision_no[8] 	39925
scalar tiger_network.node[8].content_store 	decision_ratio[8] 	0.049246302955254
scalar tiger_network.node[9].core_layer 	interests[9] 	24910
scalar tiger_network.node[9].core_layer 	repo_load[9] 	9785
scalar tiger_network.node[9].core_layer 	data[9] 	10609
scalar tiger_network.node[9].content_store 	p_hit[9] 	0.18129265355279
scalar tiger_network.node[9].content_store 	hits[9] 	4516
scalar tiger_network.node[9].content_store 	misses[9] 	20394
scalar tiger_network.node[9].content_store 	decision_yes[9] 	962
scalar tiger_network.node[9].content_store 	decision_no[9] 	19432
scalar tiger_network.node[9].content_store 	decision_ratio[9] 	0.047170736491125
scalar tiger_network.node[10].core_layer 	interests[10] 	28852
scalar tiger_network.node[10].core_layer 	repo_load[10] 	9882
scalar tiger_network.node[10].core_layer 	data[10] 	14293
scalar tiger_network.node[10].content_store 	p_hit[10] 	0.16210314709552
scalar tiger_network.node[10].content_store 	hits[10] 	4677
scalar tiger_network.node[10].content_store 	misses[10] 	24175
scalar tiger_network.node[10].content_store 	decision_yes[10] 	1274
scalar tiger_network.node[10].content_store 	decision_no[10] 	22901
scalar tiger_network.node[10].content_store 	decision_ratio[10] 	0.052699069286453
scalar tiger_network.node[11].core_layer 	interests[11] 	22692
scalar tiger_network.node[11].core_layer 	data[11] 	17023
scalar tiger_network.node[11].content_store 	p_hit[11] 	0.24982372642341
scalar tiger_network.node[11].content_store 	hits[11] 	5669
scalar tiger_network.node[11].content_store 	misses[11] 	17023
scalar tiger_network.node[11].content_store 	decision_yes[11] 	837
scalar tiger_network.node[11].content_store 	decision_no[11] 	16186
scalar tiger_network.node[11].content_store 	decision_ratio[11] 	0.049168771661869
scalar tiger_network.node[12].core_layer 	interests[12] 	38720
scalar tiger_network.node[12].core_layer 	repo_load[12] 	9886
scalar tiger_network.node[12].core_layer 	data[12] 	23922
scalar tiger_network.node[12].content_store 	p_hit[12] 	0.12683367768595
scalar tiger_network.node[12].content_store 	hits[12] 	4911
scalar tiger_network.node[12].content_store 	misses[12] 	33809
scalar tiger_network.node[12].content_store 	decision_yes[12] 	1634
scalar tiger_network.node[12].content_store 	decision_no[12] 	32174
scalar tiger_network.node[12].content_store 	decision_ratio[12] 	0.048331755797444
scalar tiger_network.node[13].core_layer 	interests[13] 	28088
scalar tiger_network.node[13].core_layer 	repo_load[13] 	10201
scalar tiger_network.node[13].core_layer 	data[13] 	13170
scalar tiger_network.node[13].content_store 	p_hit[13] 	0.16793648533181
scalar tiger_network.node[13].content_store 	hits[13] 	4717
scalar tiger_network.node[13].content_store 	misses[13] 	23371
scalar tiger_network.node[13].content_store 	decision_yes[13] 	1187
scalar tiger_network.node[13].content_store 	decision_no[13] 	22184
scalar tiger_network.node[13].content_store 	decision_ratio[13] 	0.050789439904155
scalar tiger_network.node[14].core_layer 	interests[14] 	25995
scalar tiger_network.node[14].core_layer 	repo_load[14] 	9850
scalar tiger_network.node[14].core_layer 	data[14] 	11439
scalar tiger_network.node[14].content_store 	p_hit[14] 	0.18103481438738
scalar tiger_network.node[14].content_store 	hits[14] 	4706
scalar tiger_network.node[14].content_store 	misses[14] 	21289
scalar tiger_network.node[14].content_store 	decision_yes[14] 	1078
scalar tiger_network.node[14].content_store 	decision_no[14] 	20211
scalar tiger_network.node[14].content_store 	decision_ratio[14] 	0.050636478932782
scalar tiger_network.node[15].core_layer 	interests[15] 	19025
scalar tiger_network.node[15].core_layer 	data[15] 	13595
scalar tiger_network.node[15].content_store 	p_hit[15] 	0.28541392904074
scalar tiger_network.node[15].content_store 	hits[15] 	5430
scalar tiger_network.node[15].content_store 	misses[15] 	13595
scalar tiger_network.node[15].content_store 	decision_yes[15] 	694
scalar tiger_network.node[15].content_store 	decision_no[15] 	12901
scalar tiger_network.node[15].content_store 	decision_ratio[15] 	0.051048179477749
scalar tiger_network.node[16].core_layer 	interests[16] 	29887
scalar tiger_network.node[16].core_layer 	repo_load[16] 	10346
scalar tiger_network.node[16].core_layer 	data[16] 	14378
scalar tiger_network.node[16].content_store 	p_hit[16] 	0.17275069428179
scalar tiger_network.node[16].content_store 	hits[16] 	5163
scalar tiger_network.node[16].content_store 	misses[16] 	24724
scalar tiger_network.node[16].content_store 	decision_yes[16] 	1256
scalar tiger_network.node[16].content_store 	decision_no[16] 	23468
scalar tiger_network.node[16].content_store 	decision_ratio[16] 	0.050800841287818
scalar tiger_network.node[17].core_layer 	interests[17] 	42111
scalar tiger_network.node[17].core_layer 	repo_load[17] 	10482
scalar tiger_network.node[17].core_layer 	data[17] 	27172
scalar tiger_network.node[17].content_store 	p_hit[17] 	0.10583932939137
scalar tiger_network.node[17].content_store 	hits[17] 	4457
scalar tiger_network.node[17].content_store 	misses[17] 	37654
scalar tiger_network.node[17].content_store 	decision_yes[17] 	1845
scalar tiger_network.node[17].content_store 	decision_no[17] 	35809
scalar tiger_network.node[17].content_store 	decision_ratio[17] 	0.048998778350242
scalar tiger_network.node[18].core_layer 	interests[18] 	46941
scalar tiger_network.node[18].core_layer 	repo_load[18] 	9725
scalar tiger_network.node[18].core_layer 	data[18] 	33143
scalar tiger_network.node[18].content_store 	p_hit[18] 	0.086768496623421
scalar tiger_network.node[18].content_store 	hits[18] 	4073
scalar tiger_network.node[18].content_store 	misses[18] 	42868
scalar tiger_network.node[18].content_store 	decision_yes[18] 	2251
scalar tiger_network.node[18].content_store 	decision_no[18] 	40617
scalar tiger_network.node[18].content_store 	decision_ratio[18] 	0.052510030792199
scalar tiger_network.node[19].core_layer 	interests[19] 	30369
scalar tiger_network.node[19].core_layer 	repo_load[19] 	9620
scalar tiger_network.node[19].core_layer 	data[19] 	15465
scalar tiger_network.node[19].content_store 	p_hit[19] 	0.1739932167671
scalar tiger_network.node[19].content_store 	hits[19] 	5284
scalar tiger_network.node[19].content_store 	misses[19] 	25085
scalar tiger_network.node[19].content_store 	decision_yes[19] 	1291
scalar tiger_network.node[19].content_store 	decision_no[19] 	23794
scalar tiger_network.node[19].content_store 	decision_ratio[19] 	0.051465018935619
scalar tiger_network.node[20].core_layer 	interests[20] 	26171
scalar tiger_network.node[20].core_layer 	repo_load[20] 	9600
scalar tiger_network.node[20].core_layer 	data[20] 	11873
scalar tiger_network.node[20].content_store 	p_hit[20] 	0.17951167322609
scalar tiger_network.node[20].content_store 	hits[20] 	4698
scalar tiger_network.node[20].content_store 	misses[20] 	21473
scalar tiger_network.node[20].content_store 	decision_yes[20] 	1120
scalar tiger_network.node[20].content_store 	decision_no[20] 	20353
scalar tiger_network.node[20].content_store 	decision_ratio[20] 	0.052158524658874
scalar tiger_network.node[21].core_layer 	interests[21] 	21077
scalar tiger_network.node[21].core_layer 	data[21] 	15732
scalar tiger_network.node[21].content_store 	p_hit[21] 	0.25359396498553
scalar tiger_network.node[21].content_store 	hits[21] 	5345
scalar tiger_network.node[21].content_store 	misses[21] 	15732
scalar tiger_network.node[21].content_store 	decision_yes[21] 	806
scalar tiger_network.node[21].content_store 	decision_no[21] 	14926
scalar tiger_network.node[21].content_store 	decision_ratio[21] 	0.051233155352148
scalar tiger_network.client[0] 	hdistance[0] 	2.2521687863219
scalar tiger_network.client[0] 	downloads[0] 	11873
scalar tiger_network.client[0] 	avg_time[0] 	0.000483360781
scalar tiger_network.client[1] 	hdistance[1] 	2.514127102494
scalar tiger_network.client[1] 	downloads[1] 	12069
scalar tiger_network.client[1] 	avg_time[1] 	0.000901861408
scalar tiger_network.client[2] 	hdistance[2] 	2.3073199232118
scalar tiger_network.client[2] 	downloads[2] 	11981
scalar tiger_network.client[2] 	avg_time[2] 	0.000928285436
scalar tiger_network.client[3] 	hdistance[3] 	2.4290390264373
scalar tiger_network.client[3] 	downloads[3] 	11915
scalar tiger_network.client[3] 	avg_time[3] 	0.000995829331
scalar tiger_network.client[4] 	hdistance[4] 	2.4702752141016
scalar tiger_network.client[4] 	downloads[4] 	12027
scalar tiger_network.client[4] 	avg_time[4] 	0.001008441821
scalar tiger_network.client[5] 	hdistance[5] 	2.570096598068
scalar tiger_network.client[5] 	downloads[5] 	11905
scalar tiger_network.client[5] 	avg_time[5] 	0.001051453394
scalar tiger_network.client[6] 	hdistance[6] 	2.5291698144884
scalar tiger_network.client[6] 	downloads[6] 	11913
scalar tiger_network.client[6] 	avg_time[6] 	0.000743551142
scalar tiger_network.client[7] 	hdistance[7] 	2.4689701442469
scalar tiger_network.client[7] 	downloads[7] 	11924
scalar tiger_network.client[7] 	avg_time[7] 	0.000783790221
scalar tiger_network.client[8] 	hdistance[8] 	2.4141306135878
scalar tiger_network.client[8] 	downloads[8] 	12158
scalar tiger_network.client[8] 	avg_time[8] 	0.00075725916
scalar tiger_network.client[9] 	hdistance[9] 	2.7306300378352
scalar tiger_network.client[9] 	downloads[9] 	12158
scalar tiger_network.client[9] 	avg_time[9] 	0.000709758788
scalar tiger_network.client[10] 	hdistance[10] 	2.6545867316909
scalar tiger_network.client[10] 	downloads[10] 	11893
scalar tiger_network.client[10] 	avg_time[10] 	0.000742734293
scalar tiger_network.client[11] 	hdistance[11] 	2.3839873364992
scalar tiger_network.client[11] 	downloads[11] 	12003
scalar tiger_network.client[11] 	avg_time[11] 	0.000389684414
scalar tiger_network.client[12] 	hdistance[12] 	2.2833012793712
scalar tiger_network.client[12] 	downloads[12] 	11959
scalar tiger_network.client[12] 	avg_time[12] 	0.00068395988
scalar tiger_network.client[13] 	hdistance[13] 	2.502338009352
scalar tiger_network.client[13] 	downloads[13] 	11976
scalar tiger_network.client[13] 	avg_time[13] 	0.000767290268
scalar tiger_network.client[14] 	hdistance[14] 	2.6931333988856
scalar tiger_network.client[14] 	downloads[14] 	12204
scalar tiger_network.client[14] 	avg_time[14] 	0.000754588554
scalar tiger_network.client[15] 	hdistance[15] 	2.6868577157657
scalar tiger_network.client[15] 	downloads[15] 	11969
scalar tiger_network.client[15] 	avg_time[15] 	0.000662142702
scalar tiger_network.client[16] 	hdistance[16] 	2.5054306643092
scalar tiger_network.client[16] 	downloads[16] 	11877
scalar tiger_network.client[16] 	avg_time[16] 	0.000657401616
scalar tiger_network.client[17] 	hdistance[17] 	2.3656875266071
scalar tiger_network.client[17] 	downloads[17] 	11745
scalar tiger_network.client[17] 	avg_time[17] 	0.000705830197
scalar tiger_network.client[18] 	hdistance[18] 	2.3045226955594
scalar tiger_network.client[18] 	downloads[18] 	12183
scalar tiger_network.client[18] 	avg_time[18] 	0.000497831765
scalar tiger_network.client[19] 	hdistance[19] 	2.2936721642545
scalar tiger_network.client[19] 	downloads[19] 	11884
scalar tiger_network.client[19] 	avg_time[19] 	0.000325876033
scalar tiger_network.client[20] 	hdistance[20] 	2.568815844922
scalar tiger_network.client[20] 	downloads[20] 	11865
scalar tiger_network.client[20] 	avg_time[20] 	0.000648440025
scalar tiger_network.client[21] 	hdistance[21] 	2.5653439813659
scalar tiger_network.client[21] 	downloads[21] 	12021
scalar tiger_network.client[21] 	avg_time[21] 	0.00054523515
