version 2
run General-64-20160826-11:48:33-19693
attr D fix0.05
attr F nrr
attr R lru
attr a 0.9
attr configname General
attr datetime 20160826-11:48:33
attr experiment General
attr inifile hw5115/scenario_C/omnetp.ini
attr iterationvars "$net=tiger, $rep=8, $a=0.9, $F=nrr, $D=fix0.05, $R=lru, $window=60, $variance=0.05, $mytime=600"
attr iterationvars2 "$net=tiger, $rep=8, $a=0.9, $F=nrr, $D=fix0.05, $R=lru, $window=60, $variance=0.05, $mytime=600, $repetition=0"
attr measurement "$net=tiger, $rep=8, $a=0.9, $F=nrr, $D=fix0.05, $R=lru, $window=60, $variance=0.05, $mytime=600"
attr mytime 600
attr net tiger
attr network networks.${net=tiger}_network
attr processid 19693
attr rep 8
attr repetition 0
attr replication #0
attr resultdir results
attr runnumber 64
attr seedset 8
attr variance 0.05
attr window 60

scalar . 	a 	0.9
scalar . 	mytime 	600
scalar . 	rep 	8
scalar . 	variance 	0.05
scalar . 	window 	60
scalar tiger_network.content_distribution 	repo-0 	4
scalar tiger_network.content_distribution 	repo-1 	15
scalar tiger_network.content_distribution 	repo-2 	12
scalar tiger_network.content_distribution 	repo-3 	18
scalar tiger_network.content_distribution 	repo-4 	8
scalar tiger_network.content_distribution 	repo-5 	20
scalar tiger_network.content_distribution 	repo-6 	5
scalar tiger_network.content_distribution 	repo-7 	1
scalar tiger_network.content_distribution 	repo-8 	7
scalar tiger_network.content_distribution 	repo-9 	3
scalar tiger_network.content_distribution 	repo-10 	13
scalar tiger_network.content_distribution 	repo-11 	16
scalar tiger_network.content_distribution 	repo-12 	9
scalar tiger_network.content_distribution 	repo-13 	21
scalar tiger_network.content_distribution 	repo-14 	0
scalar tiger_network.content_distribution 	repo-15 	10
scalar tiger_network.content_distribution 	client-0 	21
scalar tiger_network.content_distribution 	client-1 	9
scalar tiger_network.content_distribution 	client-2 	6
scalar tiger_network.content_distribution 	client-3 	2
scalar tiger_network.content_distribution 	client-4 	14
scalar tiger_network.content_distribution 	client-5 	8
scalar tiger_network.content_distribution 	client-6 	17
scalar tiger_network.content_distribution 	client-7 	0
scalar tiger_network.content_distribution 	client-8 	19
scalar tiger_network.content_distribution 	client-9 	10
scalar tiger_network.content_distribution 	client-10 	13
scalar tiger_network.content_distribution 	client-11 	1
scalar tiger_network.content_distribution 	client-12 	3
scalar tiger_network.content_distribution 	client-13 	18
scalar tiger_network.content_distribution 	client-14 	15
scalar tiger_network.content_distribution 	client-15 	16
scalar tiger_network.content_distribution 	client-16 	12
scalar tiger_network.content_distribution 	client-17 	11
scalar tiger_network.content_distribution 	client-18 	7
scalar tiger_network.content_distribution 	client-19 	4
scalar tiger_network.content_distribution 	client-20 	5
scalar tiger_network.content_distribution 	client-21 	20
scalar tiger_network.content_distribution 	repo-0_card 	6202
scalar tiger_network.content_distribution 	repo-0_price 	0
scalar tiger_network.content_distribution 	repo-1_card 	6316
scalar tiger_network.content_distribution 	repo-1_price 	0
scalar tiger_network.content_distribution 	repo-2_card 	6112
scalar tiger_network.content_distribution 	repo-2_price 	0
scalar tiger_network.content_distribution 	repo-3_card 	6353
scalar tiger_network.content_distribution 	repo-3_price 	0
scalar tiger_network.content_distribution 	repo-4_card 	6339
scalar tiger_network.content_distribution 	repo-4_price 	0
scalar tiger_network.content_distribution 	repo-5_card 	6224
scalar tiger_network.content_distribution 	repo-5_price 	0
scalar tiger_network.content_distribution 	repo-6_card 	6196
scalar tiger_network.content_distribution 	repo-6_price 	0
scalar tiger_network.content_distribution 	repo-7_card 	6310
scalar tiger_network.content_distribution 	repo-7_price 	0
scalar tiger_network.content_distribution 	repo-8_card 	6324
scalar tiger_network.content_distribution 	repo-8_price 	0
scalar tiger_network.content_distribution 	repo-9_card 	6229
scalar tiger_network.content_distribution 	repo-9_price 	0
scalar tiger_network.content_distribution 	repo-10_card 	6185
scalar tiger_network.content_distribution 	repo-10_price 	0
scalar tiger_network.content_distribution 	repo-11_card 	6137
scalar tiger_network.content_distribution 	repo-11_price 	0
scalar tiger_network.content_distribution 	repo-12_card 	6314
scalar tiger_network.content_distribution 	repo-12_price 	0
scalar tiger_network.content_distribution 	repo-13_card 	6325
scalar tiger_network.content_distribution 	repo-13_price 	0
scalar tiger_network.content_distribution 	repo-14_card 	6117
scalar tiger_network.content_distribution 	repo-14_price 	0
scalar tiger_network.content_distribution 	repo-15_card 	6317
scalar tiger_network.content_distribution 	repo-15_price 	0
scalar tiger_network.statistics 	stabilization_time 	578.1
scalar tiger_network.statistics 	p_hit 	0.15265051328469
scalar tiger_network.statistics 	interests 	34769.227272727
scalar tiger_network.statistics 	data 	22733.227272727
scalar tiger_network.statistics 	hdistance 	2.4971182868851
scalar tiger_network.statistics 	avg_time 	0.000730120756
scalar tiger_network.statistics 	downloads 	264791
scalar tiger_network.statistics 	total_cost 	0
scalar tiger_network.statistics 	total_replicas 	100000
scalar tiger_network.statistics 	inner_hit 	0.39164095456417
scalar tiger_network.node[0].core_layer 	interests[0] 	40273
scalar tiger_network.node[0].core_layer 	repo_load[0] 	10475
scalar tiger_network.node[0].core_layer 	data[0] 	25060
scalar tiger_network.node[0].core_layer 	repo_int[0] 	161088
scalar tiger_network.node[0].content_store 	p_hit[0] 	0.11764705882353
scalar tiger_network.node[0].content_store 	hits[0] 	4738
scalar tiger_network.node[0].content_store 	misses[0] 	35535
scalar tiger_network.node[0].content_store 	decision_yes[0] 	1748
scalar tiger_network.node[0].content_store 	decision_no[0] 	33787
scalar tiger_network.node[0].content_store 	decision_ratio[0] 	0.049190938511327
scalar tiger_network.node[1].core_layer 	interests[1] 	52205
scalar tiger_network.node[1].core_layer 	repo_load[1] 	9497
scalar tiger_network.node[1].core_layer 	data[1] 	38953
scalar tiger_network.node[1].content_store 	p_hit[1] 	0.071927976247486
scalar tiger_network.node[1].content_store 	hits[1] 	3755
scalar tiger_network.node[1].content_store 	misses[1] 	48450
scalar tiger_network.node[1].content_store 	decision_yes[1] 	2436
scalar tiger_network.node[1].content_store 	decision_no[1] 	46014
scalar tiger_network.node[1].content_store 	decision_ratio[1] 	0.050278637770898
scalar tiger_network.node[2].core_layer 	interests[2] 	56167
scalar tiger_network.node[2].core_layer 	data[2] 	52051
scalar tiger_network.node[2].content_store 	p_hit[2] 	0.07326366015632
scalar tiger_network.node[2].content_store 	hits[2] 	4115
scalar tiger_network.node[2].content_store 	misses[2] 	52052
scalar tiger_network.node[2].content_store 	decision_yes[2] 	2550
scalar tiger_network.node[2].content_store 	decision_no[2] 	49501
scalar tiger_network.node[2].content_store 	decision_ratio[2] 	0.048990413248545
scalar tiger_network.node[3].core_layer 	interests[3] 	51690
scalar tiger_network.node[3].core_layer 	repo_load[3] 	10304
scalar tiger_network.node[3].core_layer 	data[3] 	37288
scalar tiger_network.node[3].content_store 	p_hit[3] 	0.07928032501451
scalar tiger_network.node[3].content_store 	hits[3] 	4098
scalar tiger_network.node[3].content_store 	misses[3] 	47592
scalar tiger_network.node[3].content_store 	decision_yes[3] 	2385
scalar tiger_network.node[3].content_store 	decision_no[3] 	45207
scalar tiger_network.node[3].content_store 	decision_ratio[3] 	0.050113464447806
scalar tiger_network.node[4].core_layer 	interests[4] 	38059
scalar tiger_network.node[4].core_layer 	repo_load[4] 	10379
scalar tiger_network.node[4].core_layer 	data[4] 	23393
scalar tiger_network.node[4].content_store 	p_hit[4] 	0.11261462466171
scalar tiger_network.node[4].content_store 	hits[4] 	4286
scalar tiger_network.node[4].content_store 	misses[4] 	33773
scalar tiger_network.node[4].content_store 	decision_yes[4] 	1712
scalar tiger_network.node[4].content_store 	decision_no[4] 	32059
scalar tiger_network.node[4].content_store 	decision_ratio[4] 	0.050694382754434
scalar tiger_network.node[5].core_layer 	interests[5] 	26331
scalar tiger_network.node[5].core_layer 	repo_load[5] 	9432
scalar tiger_network.node[5].core_layer 	data[5] 	11787
scalar tiger_network.node[5].content_store 	p_hit[5] 	0.19414378489233
scalar tiger_network.node[5].content_store 	hits[5] 	5112
scalar tiger_network.node[5].content_store 	misses[5] 	21219
scalar tiger_network.node[5].content_store 	decision_yes[5] 	1081
scalar tiger_network.node[5].content_store 	decision_no[5] 	20138
scalar tiger_network.node[5].content_store 	decision_ratio[5] 	0.050944907865592
scalar tiger_network.node[6].core_layer 	interests[6] 	30412
scalar tiger_network.node[6].core_layer 	data[6] 	25751
scalar tiger_network.node[6].content_store 	p_hit[6] 	0.15326187031435
scalar tiger_network.node[6].content_store 	hits[6] 	4661
scalar tiger_network.node[6].content_store 	misses[6] 	25751
scalar tiger_network.node[6].content_store 	decision_yes[6] 	1322
scalar tiger_network.node[6].content_store 	decision_no[6] 	24429
scalar tiger_network.node[6].content_store 	decision_ratio[6] 	0.051337812123801
scalar tiger_network.node[7].core_layer 	interests[7] 	42437
scalar tiger_network.node[7].core_layer 	repo_load[7] 	10225
scalar tiger_network.node[7].core_layer 	data[7] 	28177
scalar tiger_network.node[7].content_store 	p_hit[7] 	0.095082121733393
scalar tiger_network.node[7].content_store 	hits[7] 	4035
scalar tiger_network.node[7].content_store 	misses[7] 	38402
scalar tiger_network.node[7].content_store 	decision_yes[7] 	1966
scalar tiger_network.node[7].content_store 	decision_no[7] 	36436
scalar tiger_network.node[7].content_store 	decision_ratio[7] 	0.051195250247383
scalar tiger_network.node[8].core_layer 	interests[8] 	52461
scalar tiger_network.node[8].core_layer 	repo_load[8] 	10225
scalar tiger_network.node[8].core_layer 	data[8] 	38060
scalar tiger_network.node[8].content_store 	p_hit[8] 	0.079582928270525
scalar tiger_network.node[8].content_store 	hits[8] 	4175
scalar tiger_network.node[8].content_store 	misses[8] 	48286
scalar tiger_network.node[8].content_store 	decision_yes[8] 	2427
scalar tiger_network.node[8].content_store 	decision_no[8] 	45858
scalar tiger_network.node[8].content_store 	decision_ratio[8] 	0.050264057160609
scalar tiger_network.node[9].core_layer 	interests[9] 	26172
scalar tiger_network.node[9].core_layer 	repo_load[9] 	9992
scalar tiger_network.node[9].core_layer 	data[9] 	11353
scalar tiger_network.node[9].content_store 	p_hit[9] 	0.18443374598808
scalar tiger_network.node[9].content_store 	hits[9] 	4827
scalar tiger_network.node[9].content_store 	misses[9] 	21345
scalar tiger_network.node[9].content_store 	decision_yes[9] 	1078
scalar tiger_network.node[9].content_store 	decision_no[9] 	20267
scalar tiger_network.node[9].content_store 	decision_ratio[9] 	0.050503630826892
scalar tiger_network.node[10].core_layer 	interests[10] 	30276
scalar tiger_network.node[10].core_layer 	repo_load[10] 	10025
scalar tiger_network.node[10].core_layer 	data[10] 	15442
scalar tiger_network.node[10].content_store 	p_hit[10] 	0.15883868410622
scalar tiger_network.node[10].content_store 	hits[10] 	4809
scalar tiger_network.node[10].content_store 	misses[10] 	25467
scalar tiger_network.node[10].content_store 	decision_yes[10] 	1292
scalar tiger_network.node[10].content_store 	decision_no[10] 	24175
scalar tiger_network.node[10].content_store 	decision_ratio[10] 	0.050732320257588
scalar tiger_network.node[11].core_layer 	interests[11] 	21977
scalar tiger_network.node[11].core_layer 	data[11] 	16588
scalar tiger_network.node[11].content_store 	p_hit[11] 	0.24521090230696
scalar tiger_network.node[11].content_store 	hits[11] 	5389
scalar tiger_network.node[11].content_store 	misses[11] 	16588
scalar tiger_network.node[11].content_store 	decision_yes[11] 	838
scalar tiger_network.node[11].content_store 	decision_no[11] 	15750
scalar tiger_network.node[11].content_store 	decision_ratio[11] 	0.050518447070171
scalar tiger_network.node[12].core_layer 	interests[12] 	36554
scalar tiger_network.node[12].core_layer 	repo_load[12] 	10226
scalar tiger_network.node[12].core_layer 	data[12] 	21550
scalar tiger_network.node[12].content_store 	p_hit[12] 	0.13071072933195
scalar tiger_network.node[12].content_store 	hits[12] 	4778
scalar tiger_network.node[12].content_store 	misses[12] 	31776
scalar tiger_network.node[12].content_store 	decision_yes[12] 	1600
scalar tiger_network.node[12].content_store 	decision_no[12] 	30176
scalar tiger_network.node[12].content_store 	decision_ratio[12] 	0.050352467270896
scalar tiger_network.node[13].core_layer 	interests[13] 	25926
scalar tiger_network.node[13].core_layer 	repo_load[13] 	9816
scalar tiger_network.node[13].core_layer 	data[13] 	11366
scalar tiger_network.node[13].content_store 	p_hit[13] 	0.18298233433619
scalar tiger_network.node[13].content_store 	hits[13] 	4744
scalar tiger_network.node[13].content_store 	misses[13] 	21182
scalar tiger_network.node[13].content_store 	decision_yes[13] 	1087
scalar tiger_network.node[13].content_store 	decision_no[13] 	20095
scalar tiger_network.node[13].content_store 	decision_ratio[13] 	0.051317156075914
scalar tiger_network.node[14].core_layer 	interests[14] 	17449
scalar tiger_network.node[14].core_layer 	data[14] 	12017
scalar tiger_network.node[14].content_store 	p_hit[14] 	0.31130723823715
scalar tiger_network.node[14].content_store 	hits[14] 	5432
scalar tiger_network.node[14].content_store 	misses[14] 	12017
scalar tiger_network.node[14].content_store 	decision_yes[14] 	621
scalar tiger_network.node[14].content_store 	decision_no[14] 	11396
scalar tiger_network.node[14].content_store 	decision_ratio[14] 	0.051676791212449
scalar tiger_network.node[15].core_layer 	interests[15] 	26706
scalar tiger_network.node[15].core_layer 	repo_load[15] 	9701
scalar tiger_network.node[15].core_layer 	data[15] 	12509
scalar tiger_network.node[15].content_store 	p_hit[15] 	0.16835168127013
scalar tiger_network.node[15].content_store 	hits[15] 	4496
scalar tiger_network.node[15].content_store 	misses[15] 	22210
scalar tiger_network.node[15].content_store 	decision_yes[15] 	1142
scalar tiger_network.node[15].content_store 	decision_no[15] 	21068
scalar tiger_network.node[15].content_store 	decision_ratio[15] 	0.05141828005403
scalar tiger_network.node[16].core_layer 	interests[16] 	31589
scalar tiger_network.node[16].core_layer 	repo_load[16] 	9857
scalar tiger_network.node[16].core_layer 	data[16] 	16722
scalar tiger_network.node[16].content_store 	p_hit[16] 	0.15859951248852
scalar tiger_network.node[16].content_store 	hits[16] 	5010
scalar tiger_network.node[16].content_store 	misses[16] 	26579
scalar tiger_network.node[16].content_store 	decision_yes[16] 	1349
scalar tiger_network.node[16].content_store 	decision_no[16] 	25230
scalar tiger_network.node[16].content_store 	decision_ratio[16] 	0.050754354941871
scalar tiger_network.node[17].core_layer 	interests[17] 	32643
scalar tiger_network.node[17].core_layer 	data[17] 	27058
scalar tiger_network.node[17].content_store 	p_hit[17] 	0.17109334313635
scalar tiger_network.node[17].content_store 	hits[17] 	5585
scalar tiger_network.node[17].content_store 	misses[17] 	27058
scalar tiger_network.node[17].content_store 	decision_yes[17] 	1411
scalar tiger_network.node[17].content_store 	decision_no[17] 	25646
scalar tiger_network.node[17].content_store 	decision_ratio[17] 	0.052149166574269
scalar tiger_network.node[18].core_layer 	interests[18] 	44281
scalar tiger_network.node[18].core_layer 	repo_load[18] 	10709
scalar tiger_network.node[18].core_layer 	data[18] 	29153
scalar tiger_network.node[18].content_store 	p_hit[18] 	0.099794494252614
scalar tiger_network.node[18].content_store 	hits[18] 	4419
scalar tiger_network.node[18].content_store 	misses[18] 	39862
scalar tiger_network.node[18].content_store 	decision_yes[18] 	1992
scalar tiger_network.node[18].content_store 	decision_no[18] 	37870
scalar tiger_network.node[18].content_store 	decision_ratio[18] 	0.049972404796548
scalar tiger_network.node[19].core_layer 	interests[19] 	24368
scalar tiger_network.node[19].core_layer 	data[19] 	18457
scalar tiger_network.node[19].content_store 	p_hit[19] 	0.24257222586999
scalar tiger_network.node[19].content_store 	hits[19] 	5911
scalar tiger_network.node[19].content_store 	misses[19] 	18457
scalar tiger_network.node[19].content_store 	decision_yes[19] 	944
scalar tiger_network.node[19].content_store 	decision_no[19] 	17513
scalar tiger_network.node[19].content_store 	decision_ratio[19] 	0.051145906702064
scalar tiger_network.node[20].core_layer 	interests[20] 	28079
scalar tiger_network.node[20].core_layer 	repo_load[20] 	10206
scalar tiger_network.node[20].core_layer 	data[20] 	13193
scalar tiger_network.node[20].content_store 	p_hit[20] 	0.16667260230065
scalar tiger_network.node[20].content_store 	hits[20] 	4680
scalar tiger_network.node[20].content_store 	misses[20] 	23399
scalar tiger_network.node[20].content_store 	decision_yes[20] 	1169
scalar tiger_network.node[20].content_store 	decision_no[20] 	22230
scalar tiger_network.node[20].content_store 	decision_ratio[20] 	0.049959399974358
scalar tiger_network.node[21].core_layer 	interests[21] 	28868
scalar tiger_network.node[21].core_layer 	repo_load[21] 	10019
scalar tiger_network.node[21].core_layer 	data[21] 	14203
scalar tiger_network.node[21].content_store 	p_hit[21] 	0.16093944852432
scalar tiger_network.node[21].content_store 	hits[21] 	4646
scalar tiger_network.node[21].content_store 	misses[21] 	24222
scalar tiger_network.node[21].content_store 	decision_yes[21] 	1203
scalar tiger_network.node[21].content_store 	decision_no[21] 	23019
scalar tiger_network.node[21].content_store 	decision_ratio[21] 	0.049665593262324
scalar tiger_network.client[0] 	hdistance[0] 	2.34375
scalar tiger_network.client[0] 	downloads[0] 	12064
scalar tiger_network.client[0] 	avg_time[0] 	0.000541311648
scalar tiger_network.client[1] 	hdistance[1] 	2.4369087837838
scalar tiger_network.client[1] 	downloads[1] 	11840
scalar tiger_network.client[1] 	avg_time[1] 	0.000841783556
scalar tiger_network.client[2] 	hdistance[2] 	2.3086848635236
scalar tiger_network.client[2] 	downloads[2] 	12090
scalar tiger_network.client[2] 	avg_time[2] 	0.000913957917
scalar tiger_network.client[3] 	hdistance[3] 	2.4890785839819
scalar tiger_network.client[3] 	downloads[3] 	11949
scalar tiger_network.client[3] 	avg_time[3] 	0.00102236358
scalar tiger_network.client[4] 	hdistance[4] 	2.5286153334995
scalar tiger_network.client[4] 	downloads[4] 	12039
scalar tiger_network.client[4] 	avg_time[4] 	0.001030316029
scalar tiger_network.client[5] 	hdistance[5] 	2.592456914495
scalar tiger_network.client[5] 	downloads[5] 	12011
scalar tiger_network.client[5] 	avg_time[5] 	0.001064029283
scalar tiger_network.client[6] 	hdistance[6] 	2.4478692942563
scalar tiger_network.client[6] 	downloads[6] 	11874
scalar tiger_network.client[6] 	avg_time[6] 	0.000789999578
scalar tiger_network.client[7] 	hdistance[7] 	2.3975144987572
scalar tiger_network.client[7] 	downloads[7] 	12070
scalar tiger_network.client[7] 	avg_time[7] 	0.000770206582
scalar tiger_network.client[8] 	hdistance[8] 	2.3655940799867
scalar tiger_network.client[8] 	downloads[8] 	12027
scalar tiger_network.client[8] 	avg_time[8] 	0.000746312924
scalar tiger_network.client[9] 	hdistance[9] 	2.6612969847171
scalar tiger_network.client[9] 	downloads[9] 	12105
scalar tiger_network.client[9] 	avg_time[9] 	0.000677223557
scalar tiger_network.client[10] 	hdistance[10] 	2.6220382061163
scalar tiger_network.client[10] 	downloads[10] 	12197
scalar tiger_network.client[10] 	avg_time[10] 	0.000759026046
scalar tiger_network.client[11] 	hdistance[11] 	2.5765937993517
scalar tiger_network.client[11] 	downloads[11] 	12031
scalar tiger_network.client[11] 	avg_time[11] 	0.000483201689
scalar tiger_network.client[12] 	hdistance[12] 	2.4402520938718
scalar tiger_network.client[12] 	downloads[12] 	12059
scalar tiger_network.client[12] 	avg_time[12] 	0.000798979335
scalar tiger_network.client[13] 	hdistance[13] 	2.6369585024435
scalar tiger_network.client[13] 	downloads[13] 	12073
scalar tiger_network.client[13] 	avg_time[13] 	0.000819657268
scalar tiger_network.client[14] 	hdistance[14] 	2.7893949468085
scalar tiger_network.client[14] 	downloads[14] 	12032
scalar tiger_network.client[14] 	avg_time[14] 	0.000754221883
scalar tiger_network.client[15] 	hdistance[15] 	2.7094295498204
scalar tiger_network.client[15] 	downloads[15] 	11973
scalar tiger_network.client[15] 	avg_time[15] 	0.000754357996
scalar tiger_network.client[16] 	hdistance[16] 	2.4923256589923
scalar tiger_network.client[16] 	downloads[16] 	11988
scalar tiger_network.client[16] 	avg_time[16] 	0.000739528689
scalar tiger_network.client[17] 	hdistance[17] 	2.3640247989276
scalar tiger_network.client[17] 	downloads[17] 	11936
scalar tiger_network.client[17] 	avg_time[17] 	0.000640709126
scalar tiger_network.client[18] 	hdistance[18] 	2.3036789297659
scalar tiger_network.client[18] 	downloads[18] 	11960
scalar tiger_network.client[18] 	avg_time[18] 	0.000416082603
scalar tiger_network.client[19] 	hdistance[19] 	2.3387841010281
scalar tiger_network.client[19] 	downloads[19] 	12353
scalar tiger_network.client[19] 	avg_time[19] 	0.000313557859
scalar tiger_network.client[20] 	hdistance[20] 	2.55241210139
scalar tiger_network.client[20] 	downloads[20] 	12230
scalar tiger_network.client[20] 	avg_time[20] 	0.000608021014
scalar tiger_network.client[21] 	hdistance[21] 	2.5389402859546
scalar tiger_network.client[21] 	downloads[21] 	11890
scalar tiger_network.client[21] 	avg_time[21] 	0.000577808472
