version 2
run General-0-20160831-10:24:19-4878
attr a 0.9
attr branch 3
attr cd lce
attr configname General
attr cr lru
attr datetime 20160831-10:24:19
attr experiment General
attr fsize 1
attr inifile hw5115/scenario_A/edge5.ini
attr iterationvars "$name=tree, $levels=5, $branch=3, $un=00, $rep=1, $scenario=Edge, $cd=lce, $cr=lru, $fsize=1, $a=0.9, $sl=spr, $ttl=1000, $variance=0.05"
attr iterationvars2 "$name=tree, $levels=5, $branch=3, $un=00, $rep=1, $scenario=Edge, $cd=lce, $cr=lru, $fsize=1, $a=0.9, $sl=spr, $ttl=1000, $variance=0.05, $repetition=0"
attr levels 5
attr measurement "$name=tree, $levels=5, $branch=3, $un=00, $rep=1, $scenario=Edge, $cd=lce, $cr=lru, $fsize=1, $a=0.9, $sl=spr, $ttl=1000, $variance=0.05"
attr name tree
attr network networks.${name}_${levels}_${branch}_u${un}_r${rep}_network
attr processid 4878
attr rep 1
attr repetition 0
attr replication #0
attr resultdir results
attr runnumber 0
attr scenario Edge
attr seedset 1
attr sl spr
attr ttl 1000
attr un 00
attr variance 0.05

scalar . 	a 	0.9
scalar . 	branch 	3
scalar . 	fsize 	1
scalar . 	levels 	5
scalar . 	rep 	1
scalar . 	ttl 	1000
scalar . 	un 	00
scalar . 	variance 	0.05
scalar tree_5_3_u00_r1_network.content_distribution 	repo-0 	0
scalar tree_5_3_u00_r1_network.content_distribution 	client-0 	120
scalar tree_5_3_u00_r1_network.content_distribution 	client-1 	119
scalar tree_5_3_u00_r1_network.content_distribution 	client-2 	118
scalar tree_5_3_u00_r1_network.content_distribution 	client-3 	117
scalar tree_5_3_u00_r1_network.content_distribution 	client-4 	116
scalar tree_5_3_u00_r1_network.content_distribution 	client-5 	115
scalar tree_5_3_u00_r1_network.content_distribution 	client-6 	114
scalar tree_5_3_u00_r1_network.content_distribution 	client-7 	113
scalar tree_5_3_u00_r1_network.content_distribution 	client-8 	112
scalar tree_5_3_u00_r1_network.content_distribution 	client-9 	111
scalar tree_5_3_u00_r1_network.content_distribution 	client-10 	110
scalar tree_5_3_u00_r1_network.content_distribution 	client-11 	109
scalar tree_5_3_u00_r1_network.content_distribution 	client-12 	108
scalar tree_5_3_u00_r1_network.content_distribution 	client-13 	107
scalar tree_5_3_u00_r1_network.content_distribution 	client-14 	106
scalar tree_5_3_u00_r1_network.content_distribution 	client-15 	105
scalar tree_5_3_u00_r1_network.content_distribution 	client-16 	104
scalar tree_5_3_u00_r1_network.content_distribution 	client-17 	103
scalar tree_5_3_u00_r1_network.content_distribution 	client-18 	102
scalar tree_5_3_u00_r1_network.content_distribution 	client-19 	101
scalar tree_5_3_u00_r1_network.content_distribution 	client-20 	100
scalar tree_5_3_u00_r1_network.content_distribution 	client-21 	99
scalar tree_5_3_u00_r1_network.content_distribution 	client-22 	98
scalar tree_5_3_u00_r1_network.content_distribution 	client-23 	97
scalar tree_5_3_u00_r1_network.content_distribution 	client-24 	96
scalar tree_5_3_u00_r1_network.content_distribution 	client-25 	95
scalar tree_5_3_u00_r1_network.content_distribution 	client-26 	94
scalar tree_5_3_u00_r1_network.content_distribution 	client-27 	93
scalar tree_5_3_u00_r1_network.content_distribution 	client-28 	92
scalar tree_5_3_u00_r1_network.content_distribution 	client-29 	91
scalar tree_5_3_u00_r1_network.content_distribution 	client-30 	90
scalar tree_5_3_u00_r1_network.content_distribution 	client-31 	89
scalar tree_5_3_u00_r1_network.content_distribution 	client-32 	88
scalar tree_5_3_u00_r1_network.content_distribution 	client-33 	87
scalar tree_5_3_u00_r1_network.content_distribution 	client-34 	86
scalar tree_5_3_u00_r1_network.content_distribution 	client-35 	85
scalar tree_5_3_u00_r1_network.content_distribution 	client-36 	84
scalar tree_5_3_u00_r1_network.content_distribution 	client-37 	83
scalar tree_5_3_u00_r1_network.content_distribution 	client-38 	82
scalar tree_5_3_u00_r1_network.content_distribution 	client-39 	81
scalar tree_5_3_u00_r1_network.content_distribution 	client-40 	80
scalar tree_5_3_u00_r1_network.content_distribution 	client-41 	79
scalar tree_5_3_u00_r1_network.content_distribution 	client-42 	78
scalar tree_5_3_u00_r1_network.content_distribution 	client-43 	77
scalar tree_5_3_u00_r1_network.content_distribution 	client-44 	76
scalar tree_5_3_u00_r1_network.content_distribution 	client-45 	75
scalar tree_5_3_u00_r1_network.content_distribution 	client-46 	74
scalar tree_5_3_u00_r1_network.content_distribution 	client-47 	73
scalar tree_5_3_u00_r1_network.content_distribution 	client-48 	72
scalar tree_5_3_u00_r1_network.content_distribution 	client-49 	71
scalar tree_5_3_u00_r1_network.content_distribution 	client-50 	70
scalar tree_5_3_u00_r1_network.content_distribution 	client-51 	69
scalar tree_5_3_u00_r1_network.content_distribution 	client-52 	68
scalar tree_5_3_u00_r1_network.content_distribution 	client-53 	67
scalar tree_5_3_u00_r1_network.content_distribution 	client-54 	66
scalar tree_5_3_u00_r1_network.content_distribution 	client-55 	65
scalar tree_5_3_u00_r1_network.content_distribution 	client-56 	64
scalar tree_5_3_u00_r1_network.content_distribution 	client-57 	63
scalar tree_5_3_u00_r1_network.content_distribution 	client-58 	62
scalar tree_5_3_u00_r1_network.content_distribution 	client-59 	61
scalar tree_5_3_u00_r1_network.content_distribution 	client-60 	60
scalar tree_5_3_u00_r1_network.content_distribution 	client-61 	59
scalar tree_5_3_u00_r1_network.content_distribution 	client-62 	58
scalar tree_5_3_u00_r1_network.content_distribution 	client-63 	57
scalar tree_5_3_u00_r1_network.content_distribution 	client-64 	56
scalar tree_5_3_u00_r1_network.content_distribution 	client-65 	55
scalar tree_5_3_u00_r1_network.content_distribution 	client-66 	54
scalar tree_5_3_u00_r1_network.content_distribution 	client-67 	53
scalar tree_5_3_u00_r1_network.content_distribution 	client-68 	52
scalar tree_5_3_u00_r1_network.content_distribution 	client-69 	51
scalar tree_5_3_u00_r1_network.content_distribution 	client-70 	50
scalar tree_5_3_u00_r1_network.content_distribution 	client-71 	49
scalar tree_5_3_u00_r1_network.content_distribution 	client-72 	48
scalar tree_5_3_u00_r1_network.content_distribution 	client-73 	47
scalar tree_5_3_u00_r1_network.content_distribution 	client-74 	46
scalar tree_5_3_u00_r1_network.content_distribution 	client-75 	45
scalar tree_5_3_u00_r1_network.content_distribution 	client-76 	44
scalar tree_5_3_u00_r1_network.content_distribution 	client-77 	43
scalar tree_5_3_u00_r1_network.content_distribution 	client-78 	42
scalar tree_5_3_u00_r1_network.content_distribution 	client-79 	41
scalar tree_5_3_u00_r1_network.content_distribution 	client-80 	40
scalar tree_5_3_u00_r1_network.content_distribution 	repo-0_card 	100000
scalar tree_5_3_u00_r1_network.content_distribution 	repo-0_price 	0
scalar tree_5_3_u00_r1_network.statistics 	stabilization_time 	423.1
scalar tree_5_3_u00_r1_network.statistics 	p_hit 	0.10500058714715
scalar tree_5_3_u00_r1_network.statistics 	interests 	35153.20661157
scalar tree_5_3_u00_r1_network.statistics 	data 	27111.760330579
scalar tree_5_3_u00_r1_network.statistics 	hdistance 	4.2156655219655
scalar tree_5_3_u00_r1_network.statistics 	avg_time 	0.006744005761
scalar tree_5_3_u00_r1_network.statistics 	downloads 	972934
scalar tree_5_3_u00_r1_network.statistics 	total_cost 	0
scalar tree_5_3_u00_r1_network.statistics 	total_replicas 	100000
scalar tree_5_3_u00_r1_network.statistics 	inner_hit 	0.15732207940107
scalar tree_5_3_u00_r1_network.node[0].core_layer 	interests[0] 	819870
scalar tree_5_3_u00_r1_network.node[0].core_layer 	repo_load[0] 	819870
scalar tree_5_3_u00_r1_network.node[0].core_layer 	data[0] 	0
scalar tree_5_3_u00_r1_network.node[0].core_layer 	repo_int[0] 	819870
scalar tree_5_3_u00_r1_network.node[0].content_store 	p_hit[0] 	0
scalar tree_5_3_u00_r1_network.node[0].content_store 	hits[0] 	0
scalar tree_5_3_u00_r1_network.node[0].content_store 	misses[0] 	819870
scalar tree_5_3_u00_r1_network.node[0].content_store 	decision_yes[0] 	0
scalar tree_5_3_u00_r1_network.node[0].content_store 	decision_no[0] 	819870
scalar tree_5_3_u00_r1_network.node[0].content_store 	decision_ratio[0] 	0
scalar tree_5_3_u00_r1_network.node[1].core_layer 	interests[1] 	273028
scalar tree_5_3_u00_r1_network.node[1].core_layer 	data[1] 	272961
scalar tree_5_3_u00_r1_network.node[1].content_store 	p_hit[1] 	0
scalar tree_5_3_u00_r1_network.node[1].content_store 	hits[1] 	0
scalar tree_5_3_u00_r1_network.node[1].content_store 	misses[1] 	273028
scalar tree_5_3_u00_r1_network.node[1].content_store 	decision_yes[1] 	0
scalar tree_5_3_u00_r1_network.node[1].content_store 	decision_no[1] 	272961
scalar tree_5_3_u00_r1_network.node[1].content_store 	decision_ratio[1] 	0
scalar tree_5_3_u00_r1_network.node[2].core_layer 	interests[2] 	273687
scalar tree_5_3_u00_r1_network.node[2].core_layer 	data[2] 	273603
scalar tree_5_3_u00_r1_network.node[2].content_store 	p_hit[2] 	0
scalar tree_5_3_u00_r1_network.node[2].content_store 	hits[2] 	0
scalar tree_5_3_u00_r1_network.node[2].content_store 	misses[2] 	273687
scalar tree_5_3_u00_r1_network.node[2].content_store 	decision_yes[2] 	0
scalar tree_5_3_u00_r1_network.node[2].content_store 	decision_no[2] 	273603
scalar tree_5_3_u00_r1_network.node[2].content_store 	decision_ratio[2] 	0
scalar tree_5_3_u00_r1_network.node[3].core_layer 	interests[3] 	273391
scalar tree_5_3_u00_r1_network.node[3].core_layer 	data[3] 	273307
scalar tree_5_3_u00_r1_network.node[3].content_store 	p_hit[3] 	0
scalar tree_5_3_u00_r1_network.node[3].content_store 	hits[3] 	0
scalar tree_5_3_u00_r1_network.node[3].content_store 	misses[3] 	273391
scalar tree_5_3_u00_r1_network.node[3].content_store 	decision_yes[3] 	0
scalar tree_5_3_u00_r1_network.node[3].content_store 	decision_no[3] 	273307
scalar tree_5_3_u00_r1_network.node[3].content_store 	decision_ratio[3] 	0
scalar tree_5_3_u00_r1_network.node[4].core_layer 	interests[4] 	90801
scalar tree_5_3_u00_r1_network.node[4].core_layer 	data[4] 	90781
scalar tree_5_3_u00_r1_network.node[4].content_store 	p_hit[4] 	0
scalar tree_5_3_u00_r1_network.node[4].content_store 	hits[4] 	0
scalar tree_5_3_u00_r1_network.node[4].content_store 	misses[4] 	90801
scalar tree_5_3_u00_r1_network.node[4].content_store 	decision_yes[4] 	0
scalar tree_5_3_u00_r1_network.node[4].content_store 	decision_no[4] 	90781
scalar tree_5_3_u00_r1_network.node[4].content_store 	decision_ratio[4] 	0
scalar tree_5_3_u00_r1_network.node[5].core_layer 	interests[5] 	90915
scalar tree_5_3_u00_r1_network.node[5].core_layer 	data[5] 	90904
scalar tree_5_3_u00_r1_network.node[5].content_store 	p_hit[5] 	0
scalar tree_5_3_u00_r1_network.node[5].content_store 	hits[5] 	0
scalar tree_5_3_u00_r1_network.node[5].content_store 	misses[5] 	90915
scalar tree_5_3_u00_r1_network.node[5].content_store 	decision_yes[5] 	0
scalar tree_5_3_u00_r1_network.node[5].content_store 	decision_no[5] 	90904
scalar tree_5_3_u00_r1_network.node[5].content_store 	decision_ratio[5] 	0
scalar tree_5_3_u00_r1_network.node[6].core_layer 	interests[6] 	91360
scalar tree_5_3_u00_r1_network.node[6].core_layer 	data[6] 	91344
scalar tree_5_3_u00_r1_network.node[6].content_store 	p_hit[6] 	0
scalar tree_5_3_u00_r1_network.node[6].content_store 	hits[6] 	0
scalar tree_5_3_u00_r1_network.node[6].content_store 	misses[6] 	91360
scalar tree_5_3_u00_r1_network.node[6].content_store 	decision_yes[6] 	0
scalar tree_5_3_u00_r1_network.node[6].content_store 	decision_no[6] 	91344
scalar tree_5_3_u00_r1_network.node[6].content_store 	decision_ratio[6] 	0
scalar tree_5_3_u00_r1_network.node[7].core_layer 	interests[7] 	91492
scalar tree_5_3_u00_r1_network.node[7].core_layer 	data[7] 	91478
scalar tree_5_3_u00_r1_network.node[7].content_store 	p_hit[7] 	0
scalar tree_5_3_u00_r1_network.node[7].content_store 	hits[7] 	0
scalar tree_5_3_u00_r1_network.node[7].content_store 	misses[7] 	91492
scalar tree_5_3_u00_r1_network.node[7].content_store 	decision_yes[7] 	0
scalar tree_5_3_u00_r1_network.node[7].content_store 	decision_no[7] 	91478
scalar tree_5_3_u00_r1_network.node[7].content_store 	decision_ratio[7] 	0
scalar tree_5_3_u00_r1_network.node[8].core_layer 	interests[8] 	91188
scalar tree_5_3_u00_r1_network.node[8].core_layer 	data[8] 	91176
scalar tree_5_3_u00_r1_network.node[8].content_store 	p_hit[8] 	0
scalar tree_5_3_u00_r1_network.node[8].content_store 	hits[8] 	0
scalar tree_5_3_u00_r1_network.node[8].content_store 	misses[8] 	91188
scalar tree_5_3_u00_r1_network.node[8].content_store 	decision_yes[8] 	0
scalar tree_5_3_u00_r1_network.node[8].content_store 	decision_no[8] 	91176
scalar tree_5_3_u00_r1_network.node[8].content_store 	decision_ratio[8] 	0
scalar tree_5_3_u00_r1_network.node[9].core_layer 	interests[9] 	91045
scalar tree_5_3_u00_r1_network.node[9].core_layer 	data[9] 	91034
scalar tree_5_3_u00_r1_network.node[9].content_store 	p_hit[9] 	0
scalar tree_5_3_u00_r1_network.node[9].content_store 	hits[9] 	0
scalar tree_5_3_u00_r1_network.node[9].content_store 	misses[9] 	91045
scalar tree_5_3_u00_r1_network.node[9].content_store 	decision_yes[9] 	0
scalar tree_5_3_u00_r1_network.node[9].content_store 	decision_no[9] 	91034
scalar tree_5_3_u00_r1_network.node[9].content_store 	decision_ratio[9] 	0
scalar tree_5_3_u00_r1_network.node[10].core_layer 	interests[10] 	91231
scalar tree_5_3_u00_r1_network.node[10].core_layer 	data[10] 	91219
scalar tree_5_3_u00_r1_network.node[10].content_store 	p_hit[10] 	0
scalar tree_5_3_u00_r1_network.node[10].content_store 	hits[10] 	0
scalar tree_5_3_u00_r1_network.node[10].content_store 	misses[10] 	91231
scalar tree_5_3_u00_r1_network.node[10].content_store 	decision_yes[10] 	0
scalar tree_5_3_u00_r1_network.node[10].content_store 	decision_no[10] 	91219
scalar tree_5_3_u00_r1_network.node[10].content_store 	decision_ratio[10] 	0
scalar tree_5_3_u00_r1_network.node[11].core_layer 	interests[11] 	91105
scalar tree_5_3_u00_r1_network.node[11].core_layer 	data[11] 	91094
scalar tree_5_3_u00_r1_network.node[11].content_store 	p_hit[11] 	0
scalar tree_5_3_u00_r1_network.node[11].content_store 	hits[11] 	0
scalar tree_5_3_u00_r1_network.node[11].content_store 	misses[11] 	91105
scalar tree_5_3_u00_r1_network.node[11].content_store 	decision_yes[11] 	0
scalar tree_5_3_u00_r1_network.node[11].content_store 	decision_no[11] 	91094
scalar tree_5_3_u00_r1_network.node[11].content_store 	decision_ratio[11] 	0
scalar tree_5_3_u00_r1_network.node[12].core_layer 	interests[12] 	91094
scalar tree_5_3_u00_r1_network.node[12].core_layer 	data[12] 	91077
scalar tree_5_3_u00_r1_network.node[12].content_store 	p_hit[12] 	0
scalar tree_5_3_u00_r1_network.node[12].content_store 	hits[12] 	0
scalar tree_5_3_u00_r1_network.node[12].content_store 	misses[12] 	91094
scalar tree_5_3_u00_r1_network.node[12].content_store 	decision_yes[12] 	0
scalar tree_5_3_u00_r1_network.node[12].content_store 	decision_no[12] 	91077
scalar tree_5_3_u00_r1_network.node[12].content_store 	decision_ratio[12] 	0
scalar tree_5_3_u00_r1_network.node[13].core_layer 	interests[13] 	30210
scalar tree_5_3_u00_r1_network.node[13].core_layer 	data[13] 	30208
scalar tree_5_3_u00_r1_network.node[13].content_store 	p_hit[13] 	0
scalar tree_5_3_u00_r1_network.node[13].content_store 	hits[13] 	0
scalar tree_5_3_u00_r1_network.node[13].content_store 	misses[13] 	30210
scalar tree_5_3_u00_r1_network.node[13].content_store 	decision_yes[13] 	0
scalar tree_5_3_u00_r1_network.node[13].content_store 	decision_no[13] 	30208
scalar tree_5_3_u00_r1_network.node[13].content_store 	decision_ratio[13] 	0
scalar tree_5_3_u00_r1_network.node[14].core_layer 	interests[14] 	30542
scalar tree_5_3_u00_r1_network.node[14].core_layer 	data[14] 	30537
scalar tree_5_3_u00_r1_network.node[14].content_store 	p_hit[14] 	0
scalar tree_5_3_u00_r1_network.node[14].content_store 	hits[14] 	0
scalar tree_5_3_u00_r1_network.node[14].content_store 	misses[14] 	30542
scalar tree_5_3_u00_r1_network.node[14].content_store 	decision_yes[14] 	0
scalar tree_5_3_u00_r1_network.node[14].content_store 	decision_no[14] 	30537
scalar tree_5_3_u00_r1_network.node[14].content_store 	decision_ratio[14] 	0
scalar tree_5_3_u00_r1_network.node[15].core_layer 	interests[15] 	30056
scalar tree_5_3_u00_r1_network.node[15].core_layer 	data[15] 	30056
scalar tree_5_3_u00_r1_network.node[15].content_store 	p_hit[15] 	0
scalar tree_5_3_u00_r1_network.node[15].content_store 	hits[15] 	0
scalar tree_5_3_u00_r1_network.node[15].content_store 	misses[15] 	30056
scalar tree_5_3_u00_r1_network.node[15].content_store 	decision_yes[15] 	0
scalar tree_5_3_u00_r1_network.node[15].content_store 	decision_no[15] 	30056
scalar tree_5_3_u00_r1_network.node[15].content_store 	decision_ratio[15] 	0
scalar tree_5_3_u00_r1_network.node[16].core_layer 	interests[16] 	30435
scalar tree_5_3_u00_r1_network.node[16].core_layer 	data[16] 	30432
scalar tree_5_3_u00_r1_network.node[16].content_store 	p_hit[16] 	0
scalar tree_5_3_u00_r1_network.node[16].content_store 	hits[16] 	0
scalar tree_5_3_u00_r1_network.node[16].content_store 	misses[16] 	30435
scalar tree_5_3_u00_r1_network.node[16].content_store 	decision_yes[16] 	0
scalar tree_5_3_u00_r1_network.node[16].content_store 	decision_no[16] 	30432
scalar tree_5_3_u00_r1_network.node[16].content_store 	decision_ratio[16] 	0
scalar tree_5_3_u00_r1_network.node[17].core_layer 	interests[17] 	30356
scalar tree_5_3_u00_r1_network.node[17].core_layer 	data[17] 	30354
scalar tree_5_3_u00_r1_network.node[17].content_store 	p_hit[17] 	0
scalar tree_5_3_u00_r1_network.node[17].content_store 	hits[17] 	0
scalar tree_5_3_u00_r1_network.node[17].content_store 	misses[17] 	30356
scalar tree_5_3_u00_r1_network.node[17].content_store 	decision_yes[17] 	0
scalar tree_5_3_u00_r1_network.node[17].content_store 	decision_no[17] 	30354
scalar tree_5_3_u00_r1_network.node[17].content_store 	decision_ratio[17] 	0
scalar tree_5_3_u00_r1_network.node[18].core_layer 	interests[18] 	30132
scalar tree_5_3_u00_r1_network.node[18].core_layer 	data[18] 	30129
scalar tree_5_3_u00_r1_network.node[18].content_store 	p_hit[18] 	0
scalar tree_5_3_u00_r1_network.node[18].content_store 	hits[18] 	0
scalar tree_5_3_u00_r1_network.node[18].content_store 	misses[18] 	30132
scalar tree_5_3_u00_r1_network.node[18].content_store 	decision_yes[18] 	0
scalar tree_5_3_u00_r1_network.node[18].content_store 	decision_no[18] 	30129
scalar tree_5_3_u00_r1_network.node[18].content_store 	decision_ratio[18] 	0
scalar tree_5_3_u00_r1_network.node[19].core_layer 	interests[19] 	30550
scalar tree_5_3_u00_r1_network.node[19].core_layer 	data[19] 	30548
scalar tree_5_3_u00_r1_network.node[19].content_store 	p_hit[19] 	0
scalar tree_5_3_u00_r1_network.node[19].content_store 	hits[19] 	0
scalar tree_5_3_u00_r1_network.node[19].content_store 	misses[19] 	30550
scalar tree_5_3_u00_r1_network.node[19].content_store 	decision_yes[19] 	0
scalar tree_5_3_u00_r1_network.node[19].content_store 	decision_no[19] 	30548
scalar tree_5_3_u00_r1_network.node[19].content_store 	decision_ratio[19] 	0
scalar tree_5_3_u00_r1_network.node[20].core_layer 	interests[20] 	30401
scalar tree_5_3_u00_r1_network.node[20].core_layer 	data[20] 	30396
scalar tree_5_3_u00_r1_network.node[20].content_store 	p_hit[20] 	0
scalar tree_5_3_u00_r1_network.node[20].content_store 	hits[20] 	0
scalar tree_5_3_u00_r1_network.node[20].content_store 	misses[20] 	30401
scalar tree_5_3_u00_r1_network.node[20].content_store 	decision_yes[20] 	0
scalar tree_5_3_u00_r1_network.node[20].content_store 	decision_no[20] 	30396
scalar tree_5_3_u00_r1_network.node[20].content_store 	decision_ratio[20] 	0
scalar tree_5_3_u00_r1_network.node[21].core_layer 	interests[21] 	30420
scalar tree_5_3_u00_r1_network.node[21].core_layer 	data[21] 	30416
scalar tree_5_3_u00_r1_network.node[21].content_store 	p_hit[21] 	0
scalar tree_5_3_u00_r1_network.node[21].content_store 	hits[21] 	0
scalar tree_5_3_u00_r1_network.node[21].content_store 	misses[21] 	30420
scalar tree_5_3_u00_r1_network.node[21].content_store 	decision_yes[21] 	0
scalar tree_5_3_u00_r1_network.node[21].content_store 	decision_no[21] 	30416
scalar tree_5_3_u00_r1_network.node[21].content_store 	decision_ratio[21] 	0
scalar tree_5_3_u00_r1_network.node[22].core_layer 	interests[22] 	30377
scalar tree_5_3_u00_r1_network.node[22].core_layer 	data[22] 	30377
scalar tree_5_3_u00_r1_network.node[22].content_store 	p_hit[22] 	0
scalar tree_5_3_u00_r1_network.node[22].content_store 	hits[22] 	0
scalar tree_5_3_u00_r1_network.node[22].content_store 	misses[22] 	30377
scalar tree_5_3_u00_r1_network.node[22].content_store 	decision_yes[22] 	0
scalar tree_5_3_u00_r1_network.node[22].content_store 	decision_no[22] 	30377
scalar tree_5_3_u00_r1_network.node[22].content_store 	decision_ratio[22] 	0
scalar tree_5_3_u00_r1_network.node[23].core_layer 	interests[23] 	30457
scalar tree_5_3_u00_r1_network.node[23].core_layer 	data[23] 	30456
scalar tree_5_3_u00_r1_network.node[23].content_store 	p_hit[23] 	0
scalar tree_5_3_u00_r1_network.node[23].content_store 	hits[23] 	0
scalar tree_5_3_u00_r1_network.node[23].content_store 	misses[23] 	30457
scalar tree_5_3_u00_r1_network.node[23].content_store 	decision_yes[23] 	0
scalar tree_5_3_u00_r1_network.node[23].content_store 	decision_no[23] 	30456
scalar tree_5_3_u00_r1_network.node[23].content_store 	decision_ratio[23] 	0
scalar tree_5_3_u00_r1_network.node[24].core_layer 	interests[24] 	30662
scalar tree_5_3_u00_r1_network.node[24].core_layer 	data[24] 	30659
scalar tree_5_3_u00_r1_network.node[24].content_store 	p_hit[24] 	0
scalar tree_5_3_u00_r1_network.node[24].content_store 	hits[24] 	0
scalar tree_5_3_u00_r1_network.node[24].content_store 	misses[24] 	30662
scalar tree_5_3_u00_r1_network.node[24].content_store 	decision_yes[24] 	0
scalar tree_5_3_u00_r1_network.node[24].content_store 	decision_no[24] 	30659
scalar tree_5_3_u00_r1_network.node[24].content_store 	decision_ratio[24] 	0
scalar tree_5_3_u00_r1_network.node[25].core_layer 	interests[25] 	30129
scalar tree_5_3_u00_r1_network.node[25].core_layer 	data[25] 	30125
scalar tree_5_3_u00_r1_network.node[25].content_store 	p_hit[25] 	0
scalar tree_5_3_u00_r1_network.node[25].content_store 	hits[25] 	0
scalar tree_5_3_u00_r1_network.node[25].content_store 	misses[25] 	30129
scalar tree_5_3_u00_r1_network.node[25].content_store 	decision_yes[25] 	0
scalar tree_5_3_u00_r1_network.node[25].content_store 	decision_no[25] 	30125
scalar tree_5_3_u00_r1_network.node[25].content_store 	decision_ratio[25] 	0
scalar tree_5_3_u00_r1_network.node[26].core_layer 	interests[26] 	30669
scalar tree_5_3_u00_r1_network.node[26].core_layer 	data[26] 	30667
scalar tree_5_3_u00_r1_network.node[26].content_store 	p_hit[26] 	0
scalar tree_5_3_u00_r1_network.node[26].content_store 	hits[26] 	0
scalar tree_5_3_u00_r1_network.node[26].content_store 	misses[26] 	30669
scalar tree_5_3_u00_r1_network.node[26].content_store 	decision_yes[26] 	0
scalar tree_5_3_u00_r1_network.node[26].content_store 	decision_no[26] 	30667
scalar tree_5_3_u00_r1_network.node[26].content_store 	decision_ratio[26] 	0
scalar tree_5_3_u00_r1_network.node[27].core_layer 	interests[27] 	30401
scalar tree_5_3_u00_r1_network.node[27].core_layer 	data[27] 	30397
scalar tree_5_3_u00_r1_network.node[27].content_store 	p_hit[27] 	0
scalar tree_5_3_u00_r1_network.node[27].content_store 	hits[27] 	0
scalar tree_5_3_u00_r1_network.node[27].content_store 	misses[27] 	30401
scalar tree_5_3_u00_r1_network.node[27].content_store 	decision_yes[27] 	0
scalar tree_5_3_u00_r1_network.node[27].content_store 	decision_no[27] 	30397
scalar tree_5_3_u00_r1_network.node[27].content_store 	decision_ratio[27] 	0
scalar tree_5_3_u00_r1_network.node[28].core_layer 	interests[28] 	30348
scalar tree_5_3_u00_r1_network.node[28].core_layer 	data[28] 	30343
scalar tree_5_3_u00_r1_network.node[28].content_store 	p_hit[28] 	0
scalar tree_5_3_u00_r1_network.node[28].content_store 	hits[28] 	0
scalar tree_5_3_u00_r1_network.node[28].content_store 	misses[28] 	30348
scalar tree_5_3_u00_r1_network.node[28].content_store 	decision_yes[28] 	0
scalar tree_5_3_u00_r1_network.node[28].content_store 	decision_no[28] 	30343
scalar tree_5_3_u00_r1_network.node[28].content_store 	decision_ratio[28] 	0
scalar tree_5_3_u00_r1_network.node[29].core_layer 	interests[29] 	30363
scalar tree_5_3_u00_r1_network.node[29].core_layer 	data[29] 	30359
scalar tree_5_3_u00_r1_network.node[29].content_store 	p_hit[29] 	0
scalar tree_5_3_u00_r1_network.node[29].content_store 	hits[29] 	0
scalar tree_5_3_u00_r1_network.node[29].content_store 	misses[29] 	30363
scalar tree_5_3_u00_r1_network.node[29].content_store 	decision_yes[29] 	0
scalar tree_5_3_u00_r1_network.node[29].content_store 	decision_no[29] 	30359
scalar tree_5_3_u00_r1_network.node[29].content_store 	decision_ratio[29] 	0
scalar tree_5_3_u00_r1_network.node[30].core_layer 	interests[30] 	30345
scalar tree_5_3_u00_r1_network.node[30].core_layer 	data[30] 	30345
scalar tree_5_3_u00_r1_network.node[30].content_store 	p_hit[30] 	0
scalar tree_5_3_u00_r1_network.node[30].content_store 	hits[30] 	0
scalar tree_5_3_u00_r1_network.node[30].content_store 	misses[30] 	30345
scalar tree_5_3_u00_r1_network.node[30].content_store 	decision_yes[30] 	0
scalar tree_5_3_u00_r1_network.node[30].content_store 	decision_no[30] 	30345
scalar tree_5_3_u00_r1_network.node[30].content_store 	decision_ratio[30] 	0
scalar tree_5_3_u00_r1_network.node[31].core_layer 	interests[31] 	30839
scalar tree_5_3_u00_r1_network.node[31].core_layer 	data[31] 	30835
scalar tree_5_3_u00_r1_network.node[31].content_store 	p_hit[31] 	0
scalar tree_5_3_u00_r1_network.node[31].content_store 	hits[31] 	0
scalar tree_5_3_u00_r1_network.node[31].content_store 	misses[31] 	30839
scalar tree_5_3_u00_r1_network.node[31].content_store 	decision_yes[31] 	0
scalar tree_5_3_u00_r1_network.node[31].content_store 	decision_no[31] 	30835
scalar tree_5_3_u00_r1_network.node[31].content_store 	decision_ratio[31] 	0
scalar tree_5_3_u00_r1_network.node[32].core_layer 	interests[32] 	30278
scalar tree_5_3_u00_r1_network.node[32].core_layer 	data[32] 	30276
scalar tree_5_3_u00_r1_network.node[32].content_store 	p_hit[32] 	0
scalar tree_5_3_u00_r1_network.node[32].content_store 	hits[32] 	0
scalar tree_5_3_u00_r1_network.node[32].content_store 	misses[32] 	30278
scalar tree_5_3_u00_r1_network.node[32].content_store 	decision_yes[32] 	0
scalar tree_5_3_u00_r1_network.node[32].content_store 	decision_no[32] 	30276
scalar tree_5_3_u00_r1_network.node[32].content_store 	decision_ratio[32] 	0
scalar tree_5_3_u00_r1_network.node[33].core_layer 	interests[33] 	30120
scalar tree_5_3_u00_r1_network.node[33].core_layer 	data[33] 	30119
scalar tree_5_3_u00_r1_network.node[33].content_store 	p_hit[33] 	0
scalar tree_5_3_u00_r1_network.node[33].content_store 	hits[33] 	0
scalar tree_5_3_u00_r1_network.node[33].content_store 	misses[33] 	30120
scalar tree_5_3_u00_r1_network.node[33].content_store 	decision_yes[33] 	0
scalar tree_5_3_u00_r1_network.node[33].content_store 	decision_no[33] 	30119
scalar tree_5_3_u00_r1_network.node[33].content_store 	decision_ratio[33] 	0
scalar tree_5_3_u00_r1_network.node[34].core_layer 	interests[34] 	30479
scalar tree_5_3_u00_r1_network.node[34].core_layer 	data[34] 	30475
scalar tree_5_3_u00_r1_network.node[34].content_store 	p_hit[34] 	0
scalar tree_5_3_u00_r1_network.node[34].content_store 	hits[34] 	0
scalar tree_5_3_u00_r1_network.node[34].content_store 	misses[34] 	30479
scalar tree_5_3_u00_r1_network.node[34].content_store 	decision_yes[34] 	0
scalar tree_5_3_u00_r1_network.node[34].content_store 	decision_no[34] 	30475
scalar tree_5_3_u00_r1_network.node[34].content_store 	decision_ratio[34] 	0
scalar tree_5_3_u00_r1_network.node[35].core_layer 	interests[35] 	30363
scalar tree_5_3_u00_r1_network.node[35].core_layer 	data[35] 	30360
scalar tree_5_3_u00_r1_network.node[35].content_store 	p_hit[35] 	0
scalar tree_5_3_u00_r1_network.node[35].content_store 	hits[35] 	0
scalar tree_5_3_u00_r1_network.node[35].content_store 	misses[35] 	30363
scalar tree_5_3_u00_r1_network.node[35].content_store 	decision_yes[35] 	0
scalar tree_5_3_u00_r1_network.node[35].content_store 	decision_no[35] 	30360
scalar tree_5_3_u00_r1_network.node[35].content_store 	decision_ratio[35] 	0
scalar tree_5_3_u00_r1_network.node[36].core_layer 	interests[36] 	30274
scalar tree_5_3_u00_r1_network.node[36].core_layer 	data[36] 	30270
scalar tree_5_3_u00_r1_network.node[36].content_store 	p_hit[36] 	0
scalar tree_5_3_u00_r1_network.node[36].content_store 	hits[36] 	0
scalar tree_5_3_u00_r1_network.node[36].content_store 	misses[36] 	30274
scalar tree_5_3_u00_r1_network.node[36].content_store 	decision_yes[36] 	0
scalar tree_5_3_u00_r1_network.node[36].content_store 	decision_no[36] 	30270
scalar tree_5_3_u00_r1_network.node[36].content_store 	decision_ratio[36] 	0
scalar tree_5_3_u00_r1_network.node[37].core_layer 	interests[37] 	30331
scalar tree_5_3_u00_r1_network.node[37].core_layer 	data[37] 	30330
scalar tree_5_3_u00_r1_network.node[37].content_store 	p_hit[37] 	0
scalar tree_5_3_u00_r1_network.node[37].content_store 	hits[37] 	0
scalar tree_5_3_u00_r1_network.node[37].content_store 	misses[37] 	30331
scalar tree_5_3_u00_r1_network.node[37].content_store 	decision_yes[37] 	0
scalar tree_5_3_u00_r1_network.node[37].content_store 	decision_no[37] 	30330
scalar tree_5_3_u00_r1_network.node[37].content_store 	decision_ratio[37] 	0
scalar tree_5_3_u00_r1_network.node[38].core_layer 	interests[38] 	30411
scalar tree_5_3_u00_r1_network.node[38].core_layer 	data[38] 	30408
scalar tree_5_3_u00_r1_network.node[38].content_store 	p_hit[38] 	0
scalar tree_5_3_u00_r1_network.node[38].content_store 	hits[38] 	0
scalar tree_5_3_u00_r1_network.node[38].content_store 	misses[38] 	30411
scalar tree_5_3_u00_r1_network.node[38].content_store 	decision_yes[38] 	0
scalar tree_5_3_u00_r1_network.node[38].content_store 	decision_no[38] 	30408
scalar tree_5_3_u00_r1_network.node[38].content_store 	decision_ratio[38] 	0
scalar tree_5_3_u00_r1_network.node[39].core_layer 	interests[39] 	30361
scalar tree_5_3_u00_r1_network.node[39].core_layer 	data[39] 	30357
scalar tree_5_3_u00_r1_network.node[39].content_store 	p_hit[39] 	0
scalar tree_5_3_u00_r1_network.node[39].content_store 	hits[39] 	0
scalar tree_5_3_u00_r1_network.node[39].content_store 	misses[39] 	30361
scalar tree_5_3_u00_r1_network.node[39].content_store 	decision_yes[39] 	0
scalar tree_5_3_u00_r1_network.node[39].content_store 	decision_no[39] 	30357
scalar tree_5_3_u00_r1_network.node[39].content_store 	decision_ratio[39] 	0
scalar tree_5_3_u00_r1_network.node[40].core_layer 	interests[40] 	12021
scalar tree_5_3_u00_r1_network.node[40].core_layer 	data[40] 	10136
scalar tree_5_3_u00_r1_network.node[40].content_store 	p_hit[40] 	0.15680891772731
scalar tree_5_3_u00_r1_network.node[40].content_store 	hits[40] 	1885
scalar tree_5_3_u00_r1_network.node[40].content_store 	misses[40] 	10136
scalar tree_5_3_u00_r1_network.node[40].content_store 	decision_yes[40] 	10136
scalar tree_5_3_u00_r1_network.node[40].content_store 	decision_no[40] 	0
scalar tree_5_3_u00_r1_network.node[40].content_store 	decision_ratio[40] 	1
scalar tree_5_3_u00_r1_network.node[41].core_layer 	interests[41] 	12032
scalar tree_5_3_u00_r1_network.node[41].core_layer 	data[41] 	10106
scalar tree_5_3_u00_r1_network.node[41].content_store 	p_hit[41] 	0.15999002659574
scalar tree_5_3_u00_r1_network.node[41].content_store 	hits[41] 	1925
scalar tree_5_3_u00_r1_network.node[41].content_store 	misses[41] 	10107
scalar tree_5_3_u00_r1_network.node[41].content_store 	decision_yes[41] 	10106
scalar tree_5_3_u00_r1_network.node[41].content_store 	decision_no[41] 	0
scalar tree_5_3_u00_r1_network.node[41].content_store 	decision_ratio[41] 	1
scalar tree_5_3_u00_r1_network.node[42].core_layer 	interests[42] 	11824
scalar tree_5_3_u00_r1_network.node[42].core_layer 	data[42] 	9968
scalar tree_5_3_u00_r1_network.node[42].content_store 	p_hit[42] 	0.15696887686062
scalar tree_5_3_u00_r1_network.node[42].content_store 	hits[42] 	1856
scalar tree_5_3_u00_r1_network.node[42].content_store 	misses[42] 	9968
scalar tree_5_3_u00_r1_network.node[42].content_store 	decision_yes[42] 	9968
scalar tree_5_3_u00_r1_network.node[42].content_store 	decision_no[42] 	0
scalar tree_5_3_u00_r1_network.node[42].content_store 	decision_ratio[42] 	1
scalar tree_5_3_u00_r1_network.node[43].core_layer 	interests[43] 	12102
scalar tree_5_3_u00_r1_network.node[43].core_layer 	data[43] 	10265
scalar tree_5_3_u00_r1_network.node[43].content_store 	p_hit[43] 	0.15171046108081
scalar tree_5_3_u00_r1_network.node[43].content_store 	hits[43] 	1836
scalar tree_5_3_u00_r1_network.node[43].content_store 	misses[43] 	10266
scalar tree_5_3_u00_r1_network.node[43].content_store 	decision_yes[43] 	10265
scalar tree_5_3_u00_r1_network.node[43].content_store 	decision_no[43] 	0
scalar tree_5_3_u00_r1_network.node[43].content_store 	decision_ratio[43] 	1
scalar tree_5_3_u00_r1_network.node[44].core_layer 	interests[44] 	12039
scalar tree_5_3_u00_r1_network.node[44].core_layer 	data[44] 	10147
scalar tree_5_3_u00_r1_network.node[44].content_store 	p_hit[44] 	0.15707284658194
scalar tree_5_3_u00_r1_network.node[44].content_store 	hits[44] 	1891
scalar tree_5_3_u00_r1_network.node[44].content_store 	misses[44] 	10148
scalar tree_5_3_u00_r1_network.node[44].content_store 	decision_yes[44] 	10147
scalar tree_5_3_u00_r1_network.node[44].content_store 	decision_no[44] 	0
scalar tree_5_3_u00_r1_network.node[44].content_store 	decision_ratio[44] 	1
scalar tree_5_3_u00_r1_network.node[45].core_layer 	interests[45] 	12078
scalar tree_5_3_u00_r1_network.node[45].core_layer 	data[45] 	10130
scalar tree_5_3_u00_r1_network.node[45].content_store 	p_hit[45] 	0.16095380029806
scalar tree_5_3_u00_r1_network.node[45].content_store 	hits[45] 	1944
scalar tree_5_3_u00_r1_network.node[45].content_store 	misses[45] 	10134
scalar tree_5_3_u00_r1_network.node[45].content_store 	decision_yes[45] 	10130
scalar tree_5_3_u00_r1_network.node[45].content_store 	decision_no[45] 	0
scalar tree_5_3_u00_r1_network.node[45].content_store 	decision_ratio[45] 	1
scalar tree_5_3_u00_r1_network.node[46].core_layer 	interests[46] 	11995
scalar tree_5_3_u00_r1_network.node[46].core_layer 	data[46] 	10072
scalar tree_5_3_u00_r1_network.node[46].content_store 	p_hit[46] 	0.16023343059608
scalar tree_5_3_u00_r1_network.node[46].content_store 	hits[46] 	1922
scalar tree_5_3_u00_r1_network.node[46].content_store 	misses[46] 	10073
scalar tree_5_3_u00_r1_network.node[46].content_store 	decision_yes[46] 	10072
scalar tree_5_3_u00_r1_network.node[46].content_store 	decision_no[46] 	0
scalar tree_5_3_u00_r1_network.node[46].content_store 	decision_ratio[46] 	1
scalar tree_5_3_u00_r1_network.node[47].core_layer 	interests[47] 	11799
scalar tree_5_3_u00_r1_network.node[47].core_layer 	data[47] 	9884
scalar tree_5_3_u00_r1_network.node[47].content_store 	p_hit[47] 	0.16230188999068
scalar tree_5_3_u00_r1_network.node[47].content_store 	hits[47] 	1915
scalar tree_5_3_u00_r1_network.node[47].content_store 	misses[47] 	9884
scalar tree_5_3_u00_r1_network.node[47].content_store 	decision_yes[47] 	9884
scalar tree_5_3_u00_r1_network.node[47].content_store 	decision_no[47] 	0
scalar tree_5_3_u00_r1_network.node[47].content_store 	decision_ratio[47] 	1
scalar tree_5_3_u00_r1_network.node[48].core_layer 	interests[48] 	12029
scalar tree_5_3_u00_r1_network.node[48].core_layer 	data[48] 	10100
scalar tree_5_3_u00_r1_network.node[48].content_store 	p_hit[48] 	0.16027932496467
scalar tree_5_3_u00_r1_network.node[48].content_store 	hits[48] 	1928
scalar tree_5_3_u00_r1_network.node[48].content_store 	misses[48] 	10101
scalar tree_5_3_u00_r1_network.node[48].content_store 	decision_yes[48] 	10100
scalar tree_5_3_u00_r1_network.node[48].content_store 	decision_no[48] 	0
scalar tree_5_3_u00_r1_network.node[48].content_store 	decision_ratio[48] 	1
scalar tree_5_3_u00_r1_network.node[49].core_layer 	interests[49] 	12068
scalar tree_5_3_u00_r1_network.node[49].core_layer 	data[49] 	10148
scalar tree_5_3_u00_r1_network.node[49].content_store 	p_hit[49] 	0.15901557838913
scalar tree_5_3_u00_r1_network.node[49].content_store 	hits[49] 	1919
scalar tree_5_3_u00_r1_network.node[49].content_store 	misses[49] 	10149
scalar tree_5_3_u00_r1_network.node[49].content_store 	decision_yes[49] 	10148
scalar tree_5_3_u00_r1_network.node[49].content_store 	decision_no[49] 	0
scalar tree_5_3_u00_r1_network.node[49].content_store 	decision_ratio[49] 	1
scalar tree_5_3_u00_r1_network.node[50].core_layer 	interests[50] 	12074
scalar tree_5_3_u00_r1_network.node[50].core_layer 	data[50] 	10213
scalar tree_5_3_u00_r1_network.node[50].content_store 	p_hit[50] 	0.15396720225277
scalar tree_5_3_u00_r1_network.node[50].content_store 	hits[50] 	1859
scalar tree_5_3_u00_r1_network.node[50].content_store 	misses[50] 	10215
scalar tree_5_3_u00_r1_network.node[50].content_store 	decision_yes[50] 	10213
scalar tree_5_3_u00_r1_network.node[50].content_store 	decision_no[50] 	0
scalar tree_5_3_u00_r1_network.node[50].content_store 	decision_ratio[50] 	1
scalar tree_5_3_u00_r1_network.node[51].core_layer 	interests[51] 	11962
scalar tree_5_3_u00_r1_network.node[51].core_layer 	data[51] 	10074
scalar tree_5_3_u00_r1_network.node[51].content_store 	p_hit[51] 	0.15766594215014
scalar tree_5_3_u00_r1_network.node[51].content_store 	hits[51] 	1886
scalar tree_5_3_u00_r1_network.node[51].content_store 	misses[51] 	10076
scalar tree_5_3_u00_r1_network.node[51].content_store 	decision_yes[51] 	10074
scalar tree_5_3_u00_r1_network.node[51].content_store 	decision_no[51] 	0
scalar tree_5_3_u00_r1_network.node[51].content_store 	decision_ratio[51] 	1
scalar tree_5_3_u00_r1_network.node[52].core_layer 	interests[52] 	12020
scalar tree_5_3_u00_r1_network.node[52].core_layer 	data[52] 	10180
scalar tree_5_3_u00_r1_network.node[52].content_store 	p_hit[52] 	0.15291181364393
scalar tree_5_3_u00_r1_network.node[52].content_store 	hits[52] 	1838
scalar tree_5_3_u00_r1_network.node[52].content_store 	misses[52] 	10182
scalar tree_5_3_u00_r1_network.node[52].content_store 	decision_yes[52] 	10180
scalar tree_5_3_u00_r1_network.node[52].content_store 	decision_no[52] 	0
scalar tree_5_3_u00_r1_network.node[52].content_store 	decision_ratio[52] 	1
scalar tree_5_3_u00_r1_network.node[53].core_layer 	interests[53] 	12041
scalar tree_5_3_u00_r1_network.node[53].core_layer 	data[53] 	10193
scalar tree_5_3_u00_r1_network.node[53].content_store 	p_hit[53] 	0.15339257536749
scalar tree_5_3_u00_r1_network.node[53].content_store 	hits[53] 	1847
scalar tree_5_3_u00_r1_network.node[53].content_store 	misses[53] 	10194
scalar tree_5_3_u00_r1_network.node[53].content_store 	decision_yes[53] 	10193
scalar tree_5_3_u00_r1_network.node[53].content_store 	decision_no[53] 	0
scalar tree_5_3_u00_r1_network.node[53].content_store 	decision_ratio[53] 	1
scalar tree_5_3_u00_r1_network.node[54].core_layer 	interests[54] 	11851
scalar tree_5_3_u00_r1_network.node[54].core_layer 	data[54] 	9983
scalar tree_5_3_u00_r1_network.node[54].content_store 	p_hit[54] 	0.15737068601806
scalar tree_5_3_u00_r1_network.node[54].content_store 	hits[54] 	1865
scalar tree_5_3_u00_r1_network.node[54].content_store 	misses[54] 	9986
scalar tree_5_3_u00_r1_network.node[54].content_store 	decision_yes[54] 	9983
scalar tree_5_3_u00_r1_network.node[54].content_store 	decision_no[54] 	0
scalar tree_5_3_u00_r1_network.node[54].content_store 	decision_ratio[54] 	1
scalar tree_5_3_u00_r1_network.node[55].core_layer 	interests[55] 	11989
scalar tree_5_3_u00_r1_network.node[55].core_layer 	data[55] 	10045
scalar tree_5_3_u00_r1_network.node[55].content_store 	p_hit[55] 	0.1621486362499
scalar tree_5_3_u00_r1_network.node[55].content_store 	hits[55] 	1944
scalar tree_5_3_u00_r1_network.node[55].content_store 	misses[55] 	10045
scalar tree_5_3_u00_r1_network.node[55].content_store 	decision_yes[55] 	10045
scalar tree_5_3_u00_r1_network.node[55].content_store 	decision_no[55] 	0
scalar tree_5_3_u00_r1_network.node[55].content_store 	decision_ratio[55] 	1
scalar tree_5_3_u00_r1_network.node[56].core_layer 	interests[56] 	11948
scalar tree_5_3_u00_r1_network.node[56].core_layer 	data[56] 	10060
scalar tree_5_3_u00_r1_network.node[56].content_store 	p_hit[56] 	0.15785068630733
scalar tree_5_3_u00_r1_network.node[56].content_store 	hits[56] 	1886
scalar tree_5_3_u00_r1_network.node[56].content_store 	misses[56] 	10062
scalar tree_5_3_u00_r1_network.node[56].content_store 	decision_yes[56] 	10060
scalar tree_5_3_u00_r1_network.node[56].content_store 	decision_no[56] 	0
scalar tree_5_3_u00_r1_network.node[56].content_store 	decision_ratio[56] 	1
scalar tree_5_3_u00_r1_network.node[57].core_layer 	interests[57] 	11911
scalar tree_5_3_u00_r1_network.node[57].core_layer 	data[57] 	10027
scalar tree_5_3_u00_r1_network.node[57].content_store 	p_hit[57] 	0.15817311728654
scalar tree_5_3_u00_r1_network.node[57].content_store 	hits[57] 	1884
scalar tree_5_3_u00_r1_network.node[57].content_store 	misses[57] 	10027
scalar tree_5_3_u00_r1_network.node[57].content_store 	decision_yes[57] 	10027
scalar tree_5_3_u00_r1_network.node[57].content_store 	decision_no[57] 	0
scalar tree_5_3_u00_r1_network.node[57].content_store 	decision_ratio[57] 	1
scalar tree_5_3_u00_r1_network.node[58].core_layer 	interests[58] 	12157
scalar tree_5_3_u00_r1_network.node[58].core_layer 	data[58] 	10235
scalar tree_5_3_u00_r1_network.node[58].content_store 	p_hit[58] 	0.15793370074854
scalar tree_5_3_u00_r1_network.node[58].content_store 	hits[58] 	1920
scalar tree_5_3_u00_r1_network.node[58].content_store 	misses[58] 	10237
scalar tree_5_3_u00_r1_network.node[58].content_store 	decision_yes[58] 	10235
scalar tree_5_3_u00_r1_network.node[58].content_store 	decision_no[58] 	0
scalar tree_5_3_u00_r1_network.node[58].content_store 	decision_ratio[58] 	1
scalar tree_5_3_u00_r1_network.node[59].core_layer 	interests[59] 	11947
scalar tree_5_3_u00_r1_network.node[59].core_layer 	data[59] 	10122
scalar tree_5_3_u00_r1_network.node[59].content_store 	p_hit[59] 	0.15259060852097
scalar tree_5_3_u00_r1_network.node[59].content_store 	hits[59] 	1823
scalar tree_5_3_u00_r1_network.node[59].content_store 	misses[59] 	10124
scalar tree_5_3_u00_r1_network.node[59].content_store 	decision_yes[59] 	10122
scalar tree_5_3_u00_r1_network.node[59].content_store 	decision_no[59] 	0
scalar tree_5_3_u00_r1_network.node[59].content_store 	decision_ratio[59] 	1
scalar tree_5_3_u00_r1_network.node[60].core_layer 	interests[60] 	12023
scalar tree_5_3_u00_r1_network.node[60].core_layer 	data[60] 	10193
scalar tree_5_3_u00_r1_network.node[60].content_store 	p_hit[60] 	0.15195874573734
scalar tree_5_3_u00_r1_network.node[60].content_store 	hits[60] 	1827
scalar tree_5_3_u00_r1_network.node[60].content_store 	misses[60] 	10196
scalar tree_5_3_u00_r1_network.node[60].content_store 	decision_yes[60] 	10193
scalar tree_5_3_u00_r1_network.node[60].content_store 	decision_no[60] 	0
scalar tree_5_3_u00_r1_network.node[60].content_store 	decision_ratio[60] 	1
scalar tree_5_3_u00_r1_network.node[61].core_layer 	interests[61] 	11870
scalar tree_5_3_u00_r1_network.node[61].core_layer 	data[61] 	9995
scalar tree_5_3_u00_r1_network.node[61].content_store 	p_hit[61] 	0.15787700084246
scalar tree_5_3_u00_r1_network.node[61].content_store 	hits[61] 	1874
scalar tree_5_3_u00_r1_network.node[61].content_store 	misses[61] 	9996
scalar tree_5_3_u00_r1_network.node[61].content_store 	decision_yes[61] 	9995
scalar tree_5_3_u00_r1_network.node[61].content_store 	decision_no[61] 	0
scalar tree_5_3_u00_r1_network.node[61].content_store 	decision_ratio[61] 	1
scalar tree_5_3_u00_r1_network.node[62].core_layer 	interests[62] 	12149
scalar tree_5_3_u00_r1_network.node[62].core_layer 	data[62] 	10161
scalar tree_5_3_u00_r1_network.node[62].content_store 	p_hit[62] 	0.16371717836859
scalar tree_5_3_u00_r1_network.node[62].content_store 	hits[62] 	1989
scalar tree_5_3_u00_r1_network.node[62].content_store 	misses[62] 	10160
scalar tree_5_3_u00_r1_network.node[62].content_store 	decision_yes[62] 	10161
scalar tree_5_3_u00_r1_network.node[62].content_store 	decision_no[62] 	0
scalar tree_5_3_u00_r1_network.node[62].content_store 	decision_ratio[62] 	1
scalar tree_5_3_u00_r1_network.node[63].core_layer 	interests[63] 	12156
scalar tree_5_3_u00_r1_network.node[63].core_layer 	data[63] 	10246
scalar tree_5_3_u00_r1_network.node[63].content_store 	p_hit[63] 	0.15679499835472
scalar tree_5_3_u00_r1_network.node[63].content_store 	hits[63] 	1906
scalar tree_5_3_u00_r1_network.node[63].content_store 	misses[63] 	10250
scalar tree_5_3_u00_r1_network.node[63].content_store 	decision_yes[63] 	10246
scalar tree_5_3_u00_r1_network.node[63].content_store 	decision_no[63] 	0
scalar tree_5_3_u00_r1_network.node[63].content_store 	decision_ratio[63] 	1
scalar tree_5_3_u00_r1_network.node[64].core_layer 	interests[64] 	11985
scalar tree_5_3_u00_r1_network.node[64].core_layer 	data[64] 	10113
scalar tree_5_3_u00_r1_network.node[64].content_store 	p_hit[64] 	0.15619524405507
scalar tree_5_3_u00_r1_network.node[64].content_store 	hits[64] 	1872
scalar tree_5_3_u00_r1_network.node[64].content_store 	misses[64] 	10113
scalar tree_5_3_u00_r1_network.node[64].content_store 	decision_yes[64] 	10113
scalar tree_5_3_u00_r1_network.node[64].content_store 	decision_no[64] 	0
scalar tree_5_3_u00_r1_network.node[64].content_store 	decision_ratio[64] 	1
scalar tree_5_3_u00_r1_network.node[65].core_layer 	interests[65] 	12015
scalar tree_5_3_u00_r1_network.node[65].core_layer 	data[65] 	10179
scalar tree_5_3_u00_r1_network.node[65].content_store 	p_hit[65] 	0.15297544735747
scalar tree_5_3_u00_r1_network.node[65].content_store 	hits[65] 	1838
scalar tree_5_3_u00_r1_network.node[65].content_store 	misses[65] 	10177
scalar tree_5_3_u00_r1_network.node[65].content_store 	decision_yes[65] 	10179
scalar tree_5_3_u00_r1_network.node[65].content_store 	decision_no[65] 	0
scalar tree_5_3_u00_r1_network.node[65].content_store 	decision_ratio[65] 	1
scalar tree_5_3_u00_r1_network.node[66].core_layer 	interests[66] 	12181
scalar tree_5_3_u00_r1_network.node[66].core_layer 	data[66] 	10129
scalar tree_5_3_u00_r1_network.node[66].content_store 	p_hit[66] 	0.16837698054347
scalar tree_5_3_u00_r1_network.node[66].content_store 	hits[66] 	2051
scalar tree_5_3_u00_r1_network.node[66].content_store 	misses[66] 	10130
scalar tree_5_3_u00_r1_network.node[66].content_store 	decision_yes[66] 	10129
scalar tree_5_3_u00_r1_network.node[66].content_store 	decision_no[66] 	0
scalar tree_5_3_u00_r1_network.node[66].content_store 	decision_ratio[66] 	1
scalar tree_5_3_u00_r1_network.node[67].core_layer 	interests[67] 	12025
scalar tree_5_3_u00_r1_network.node[67].core_layer 	data[67] 	10138
scalar tree_5_3_u00_r1_network.node[67].content_store 	p_hit[67] 	0.15692307692308
scalar tree_5_3_u00_r1_network.node[67].content_store 	hits[67] 	1887
scalar tree_5_3_u00_r1_network.node[67].content_store 	misses[67] 	10138
scalar tree_5_3_u00_r1_network.node[67].content_store 	decision_yes[67] 	10138
scalar tree_5_3_u00_r1_network.node[67].content_store 	decision_no[67] 	0
scalar tree_5_3_u00_r1_network.node[67].content_store 	decision_ratio[67] 	1
scalar tree_5_3_u00_r1_network.node[68].core_layer 	interests[68] 	11953
scalar tree_5_3_u00_r1_network.node[68].core_layer 	data[68] 	10123
scalar tree_5_3_u00_r1_network.node[68].content_store 	p_hit[68] 	0.15309964025768
scalar tree_5_3_u00_r1_network.node[68].content_store 	hits[68] 	1830
scalar tree_5_3_u00_r1_network.node[68].content_store 	misses[68] 	10123
scalar tree_5_3_u00_r1_network.node[68].content_store 	decision_yes[68] 	10123
scalar tree_5_3_u00_r1_network.node[68].content_store 	decision_no[68] 	0
scalar tree_5_3_u00_r1_network.node[68].content_store 	decision_ratio[68] 	1
scalar tree_5_3_u00_r1_network.node[69].core_layer 	interests[69] 	12020
scalar tree_5_3_u00_r1_network.node[69].core_layer 	data[69] 	10116
scalar tree_5_3_u00_r1_network.node[69].content_store 	p_hit[69] 	0.15831946755408
scalar tree_5_3_u00_r1_network.node[69].content_store 	hits[69] 	1903
scalar tree_5_3_u00_r1_network.node[69].content_store 	misses[69] 	10117
scalar tree_5_3_u00_r1_network.node[69].content_store 	decision_yes[69] 	10116
scalar tree_5_3_u00_r1_network.node[69].content_store 	decision_no[69] 	0
scalar tree_5_3_u00_r1_network.node[69].content_store 	decision_ratio[69] 	1
scalar tree_5_3_u00_r1_network.node[70].core_layer 	interests[70] 	12261
scalar tree_5_3_u00_r1_network.node[70].core_layer 	data[70] 	10403
scalar tree_5_3_u00_r1_network.node[70].content_store 	p_hit[70] 	0.15153739499225
scalar tree_5_3_u00_r1_network.node[70].content_store 	hits[70] 	1858
scalar tree_5_3_u00_r1_network.node[70].content_store 	misses[70] 	10403
scalar tree_5_3_u00_r1_network.node[70].content_store 	decision_yes[70] 	10403
scalar tree_5_3_u00_r1_network.node[70].content_store 	decision_no[70] 	0
scalar tree_5_3_u00_r1_network.node[70].content_store 	decision_ratio[70] 	1
scalar tree_5_3_u00_r1_network.node[71].core_layer 	interests[71] 	11930
scalar tree_5_3_u00_r1_network.node[71].core_layer 	data[71] 	10010
scalar tree_5_3_u00_r1_network.node[71].content_store 	p_hit[71] 	0.16077116512992
scalar tree_5_3_u00_r1_network.node[71].content_store 	hits[71] 	1918
scalar tree_5_3_u00_r1_network.node[71].content_store 	misses[71] 	10012
scalar tree_5_3_u00_r1_network.node[71].content_store 	decision_yes[71] 	10010
scalar tree_5_3_u00_r1_network.node[71].content_store 	decision_no[71] 	0
scalar tree_5_3_u00_r1_network.node[71].content_store 	decision_ratio[71] 	1
scalar tree_5_3_u00_r1_network.node[72].core_layer 	interests[72] 	12005
scalar tree_5_3_u00_r1_network.node[72].core_layer 	data[72] 	10045
scalar tree_5_3_u00_r1_network.node[72].content_store 	p_hit[72] 	0.16318200749688
scalar tree_5_3_u00_r1_network.node[72].content_store 	hits[72] 	1959
scalar tree_5_3_u00_r1_network.node[72].content_store 	misses[72] 	10046
scalar tree_5_3_u00_r1_network.node[72].content_store 	decision_yes[72] 	10045
scalar tree_5_3_u00_r1_network.node[72].content_store 	decision_no[72] 	0
scalar tree_5_3_u00_r1_network.node[72].content_store 	decision_ratio[72] 	1
scalar tree_5_3_u00_r1_network.node[73].core_layer 	interests[73] 	12104
scalar tree_5_3_u00_r1_network.node[73].core_layer 	data[73] 	10280
scalar tree_5_3_u00_r1_network.node[73].content_store 	p_hit[73] 	0.15061136814276
scalar tree_5_3_u00_r1_network.node[73].content_store 	hits[73] 	1823
scalar tree_5_3_u00_r1_network.node[73].content_store 	misses[73] 	10281
scalar tree_5_3_u00_r1_network.node[73].content_store 	decision_yes[73] 	10280
scalar tree_5_3_u00_r1_network.node[73].content_store 	decision_no[73] 	0
scalar tree_5_3_u00_r1_network.node[73].content_store 	decision_ratio[73] 	1
scalar tree_5_3_u00_r1_network.node[74].core_layer 	interests[74] 	11945
scalar tree_5_3_u00_r1_network.node[74].core_layer 	data[74] 	10106
scalar tree_5_3_u00_r1_network.node[74].content_store 	p_hit[74] 	0.15378819589787
scalar tree_5_3_u00_r1_network.node[74].content_store 	hits[74] 	1837
scalar tree_5_3_u00_r1_network.node[74].content_store 	misses[74] 	10108
scalar tree_5_3_u00_r1_network.node[74].content_store 	decision_yes[74] 	10106
scalar tree_5_3_u00_r1_network.node[74].content_store 	decision_no[74] 	0
scalar tree_5_3_u00_r1_network.node[74].content_store 	decision_ratio[74] 	1
scalar tree_5_3_u00_r1_network.node[75].core_layer 	interests[75] 	12214
scalar tree_5_3_u00_r1_network.node[75].core_layer 	data[75] 	10276
scalar tree_5_3_u00_r1_network.node[75].content_store 	p_hit[75] 	0.15858850499427
scalar tree_5_3_u00_r1_network.node[75].content_store 	hits[75] 	1937
scalar tree_5_3_u00_r1_network.node[75].content_store 	misses[75] 	10277
scalar tree_5_3_u00_r1_network.node[75].content_store 	decision_yes[75] 	10276
scalar tree_5_3_u00_r1_network.node[75].content_store 	decision_no[75] 	0
scalar tree_5_3_u00_r1_network.node[75].content_store 	decision_ratio[75] 	1
scalar tree_5_3_u00_r1_network.node[76].core_layer 	interests[76] 	11883
scalar tree_5_3_u00_r1_network.node[76].core_layer 	data[76] 	10001
scalar tree_5_3_u00_r1_network.node[76].content_store 	p_hit[76] 	0.15829336026256
scalar tree_5_3_u00_r1_network.node[76].content_store 	hits[76] 	1881
scalar tree_5_3_u00_r1_network.node[76].content_store 	misses[76] 	10002
scalar tree_5_3_u00_r1_network.node[76].content_store 	decision_yes[76] 	10001
scalar tree_5_3_u00_r1_network.node[76].content_store 	decision_no[76] 	0
scalar tree_5_3_u00_r1_network.node[76].content_store 	decision_ratio[76] 	1
scalar tree_5_3_u00_r1_network.node[77].core_layer 	interests[77] 	11926
scalar tree_5_3_u00_r1_network.node[77].core_layer 	data[77] 	10076
scalar tree_5_3_u00_r1_network.node[77].content_store 	p_hit[77] 	0.15503940969311
scalar tree_5_3_u00_r1_network.node[77].content_store 	hits[77] 	1849
scalar tree_5_3_u00_r1_network.node[77].content_store 	misses[77] 	10077
scalar tree_5_3_u00_r1_network.node[77].content_store 	decision_yes[77] 	10076
scalar tree_5_3_u00_r1_network.node[77].content_store 	decision_no[77] 	0
scalar tree_5_3_u00_r1_network.node[77].content_store 	decision_ratio[77] 	1
scalar tree_5_3_u00_r1_network.node[78].core_layer 	interests[78] 	11914
scalar tree_5_3_u00_r1_network.node[78].core_layer 	data[78] 	10052
scalar tree_5_3_u00_r1_network.node[78].content_store 	p_hit[78] 	0.15620278663757
scalar tree_5_3_u00_r1_network.node[78].content_store 	hits[78] 	1861
scalar tree_5_3_u00_r1_network.node[78].content_store 	misses[78] 	10053
scalar tree_5_3_u00_r1_network.node[78].content_store 	decision_yes[78] 	10052
scalar tree_5_3_u00_r1_network.node[78].content_store 	decision_no[78] 	0
scalar tree_5_3_u00_r1_network.node[78].content_store 	decision_ratio[78] 	1
scalar tree_5_3_u00_r1_network.node[79].core_layer 	interests[79] 	11918
scalar tree_5_3_u00_r1_network.node[79].core_layer 	data[79] 	10088
scalar tree_5_3_u00_r1_network.node[79].content_store 	p_hit[79] 	0.15346534653465
scalar tree_5_3_u00_r1_network.node[79].content_store 	hits[79] 	1829
scalar tree_5_3_u00_r1_network.node[79].content_store 	misses[79] 	10089
scalar tree_5_3_u00_r1_network.node[79].content_store 	decision_yes[79] 	10088
scalar tree_5_3_u00_r1_network.node[79].content_store 	decision_no[79] 	0
scalar tree_5_3_u00_r1_network.node[79].content_store 	decision_ratio[79] 	1
scalar tree_5_3_u00_r1_network.node[80].core_layer 	interests[80] 	12232
scalar tree_5_3_u00_r1_network.node[80].core_layer 	data[80] 	10400
scalar tree_5_3_u00_r1_network.node[80].content_store 	p_hit[80] 	0.14977109221714
scalar tree_5_3_u00_r1_network.node[80].content_store 	hits[80] 	1832
scalar tree_5_3_u00_r1_network.node[80].content_store 	misses[80] 	10400
scalar tree_5_3_u00_r1_network.node[80].content_store 	decision_yes[80] 	10400
scalar tree_5_3_u00_r1_network.node[80].content_store 	decision_no[80] 	0
scalar tree_5_3_u00_r1_network.node[80].content_store 	decision_ratio[80] 	1
scalar tree_5_3_u00_r1_network.node[81].core_layer 	interests[81] 	12146
scalar tree_5_3_u00_r1_network.node[81].core_layer 	data[81] 	10182
scalar tree_5_3_u00_r1_network.node[81].content_store 	p_hit[81] 	0.16169932488062
scalar tree_5_3_u00_r1_network.node[81].content_store 	hits[81] 	1964
scalar tree_5_3_u00_r1_network.node[81].content_store 	misses[81] 	10182
scalar tree_5_3_u00_r1_network.node[81].content_store 	decision_yes[81] 	10182
scalar tree_5_3_u00_r1_network.node[81].content_store 	decision_no[81] 	0
scalar tree_5_3_u00_r1_network.node[81].content_store 	decision_ratio[81] 	1
scalar tree_5_3_u00_r1_network.node[82].core_layer 	interests[82] 	12399
scalar tree_5_3_u00_r1_network.node[82].core_layer 	data[82] 	10428
scalar tree_5_3_u00_r1_network.node[82].content_store 	p_hit[82] 	0.15888378095008
scalar tree_5_3_u00_r1_network.node[82].content_store 	hits[82] 	1970
scalar tree_5_3_u00_r1_network.node[82].content_store 	misses[82] 	10429
scalar tree_5_3_u00_r1_network.node[82].content_store 	decision_yes[82] 	10428
scalar tree_5_3_u00_r1_network.node[82].content_store 	decision_no[82] 	0
scalar tree_5_3_u00_r1_network.node[82].content_store 	decision_ratio[82] 	1
scalar tree_5_3_u00_r1_network.node[83].core_layer 	interests[83] 	11796
scalar tree_5_3_u00_r1_network.node[83].core_layer 	data[83] 	9928
scalar tree_5_3_u00_r1_network.node[83].content_store 	p_hit[83] 	0.15810444218379
scalar tree_5_3_u00_r1_network.node[83].content_store 	hits[83] 	1865
scalar tree_5_3_u00_r1_network.node[83].content_store 	misses[83] 	9931
scalar tree_5_3_u00_r1_network.node[83].content_store 	decision_yes[83] 	9928
scalar tree_5_3_u00_r1_network.node[83].content_store 	decision_no[83] 	0
scalar tree_5_3_u00_r1_network.node[83].content_store 	decision_ratio[83] 	1
scalar tree_5_3_u00_r1_network.node[84].core_layer 	interests[84] 	11848
scalar tree_5_3_u00_r1_network.node[84].core_layer 	data[84] 	10045
scalar tree_5_3_u00_r1_network.node[84].content_store 	p_hit[84] 	0.15217758271438
scalar tree_5_3_u00_r1_network.node[84].content_store 	hits[84] 	1803
scalar tree_5_3_u00_r1_network.node[84].content_store 	misses[84] 	10045
scalar tree_5_3_u00_r1_network.node[84].content_store 	decision_yes[84] 	10045
scalar tree_5_3_u00_r1_network.node[84].content_store 	decision_no[84] 	0
scalar tree_5_3_u00_r1_network.node[84].content_store 	decision_ratio[84] 	1
scalar tree_5_3_u00_r1_network.node[85].core_layer 	interests[85] 	11990
scalar tree_5_3_u00_r1_network.node[85].core_layer 	data[85] 	10109
scalar tree_5_3_u00_r1_network.node[85].content_store 	p_hit[85] 	0.15688073394495
scalar tree_5_3_u00_r1_network.node[85].content_store 	hits[85] 	1881
scalar tree_5_3_u00_r1_network.node[85].content_store 	misses[85] 	10109
scalar tree_5_3_u00_r1_network.node[85].content_store 	decision_yes[85] 	10109
scalar tree_5_3_u00_r1_network.node[85].content_store 	decision_no[85] 	0
scalar tree_5_3_u00_r1_network.node[85].content_store 	decision_ratio[85] 	1
scalar tree_5_3_u00_r1_network.node[86].core_layer 	interests[86] 	12002
scalar tree_5_3_u00_r1_network.node[86].core_layer 	data[86] 	10092
scalar tree_5_3_u00_r1_network.node[86].content_store 	p_hit[86] 	0.15905682386269
scalar tree_5_3_u00_r1_network.node[86].content_store 	hits[86] 	1909
scalar tree_5_3_u00_r1_network.node[86].content_store 	misses[86] 	10093
scalar tree_5_3_u00_r1_network.node[86].content_store 	decision_yes[86] 	10092
scalar tree_5_3_u00_r1_network.node[86].content_store 	decision_no[86] 	0
scalar tree_5_3_u00_r1_network.node[86].content_store 	decision_ratio[86] 	1
scalar tree_5_3_u00_r1_network.node[87].core_layer 	interests[87] 	12043
scalar tree_5_3_u00_r1_network.node[87].core_layer 	data[87] 	10147
scalar tree_5_3_u00_r1_network.node[87].content_store 	p_hit[87] 	0.15735281906502
scalar tree_5_3_u00_r1_network.node[87].content_store 	hits[87] 	1895
scalar tree_5_3_u00_r1_network.node[87].content_store 	misses[87] 	10148
scalar tree_5_3_u00_r1_network.node[87].content_store 	decision_yes[87] 	10147
scalar tree_5_3_u00_r1_network.node[87].content_store 	decision_no[87] 	0
scalar tree_5_3_u00_r1_network.node[87].content_store 	decision_ratio[87] 	1
scalar tree_5_3_u00_r1_network.node[88].core_layer 	interests[88] 	12081
scalar tree_5_3_u00_r1_network.node[88].core_layer 	data[88] 	10179
scalar tree_5_3_u00_r1_network.node[88].content_store 	p_hit[88] 	0.15735452363215
scalar tree_5_3_u00_r1_network.node[88].content_store 	hits[88] 	1901
scalar tree_5_3_u00_r1_network.node[88].content_store 	misses[88] 	10180
scalar tree_5_3_u00_r1_network.node[88].content_store 	decision_yes[88] 	10179
scalar tree_5_3_u00_r1_network.node[88].content_store 	decision_no[88] 	0
scalar tree_5_3_u00_r1_network.node[88].content_store 	decision_ratio[88] 	1
scalar tree_5_3_u00_r1_network.node[89].core_layer 	interests[89] 	12032
scalar tree_5_3_u00_r1_network.node[89].core_layer 	data[89] 	10171
scalar tree_5_3_u00_r1_network.node[89].content_store 	p_hit[89] 	0.15442154255319
scalar tree_5_3_u00_r1_network.node[89].content_store 	hits[89] 	1858
scalar tree_5_3_u00_r1_network.node[89].content_store 	misses[89] 	10174
scalar tree_5_3_u00_r1_network.node[89].content_store 	decision_yes[89] 	10171
scalar tree_5_3_u00_r1_network.node[89].content_store 	decision_no[89] 	0
scalar tree_5_3_u00_r1_network.node[89].content_store 	decision_ratio[89] 	1
scalar tree_5_3_u00_r1_network.node[90].core_layer 	interests[90] 	11907
scalar tree_5_3_u00_r1_network.node[90].core_layer 	data[90] 	10013
scalar tree_5_3_u00_r1_network.node[90].content_store 	p_hit[90] 	0.15898211136306
scalar tree_5_3_u00_r1_network.node[90].content_store 	hits[90] 	1893
scalar tree_5_3_u00_r1_network.node[90].content_store 	misses[90] 	10014
scalar tree_5_3_u00_r1_network.node[90].content_store 	decision_yes[90] 	10013
scalar tree_5_3_u00_r1_network.node[90].content_store 	decision_no[90] 	0
scalar tree_5_3_u00_r1_network.node[90].content_store 	decision_ratio[90] 	1
scalar tree_5_3_u00_r1_network.node[91].core_layer 	interests[91] 	12057
scalar tree_5_3_u00_r1_network.node[91].core_layer 	data[91] 	10205
scalar tree_5_3_u00_r1_network.node[91].content_store 	p_hit[91] 	0.1534378369412
scalar tree_5_3_u00_r1_network.node[91].content_store 	hits[91] 	1850
scalar tree_5_3_u00_r1_network.node[91].content_store 	misses[91] 	10207
scalar tree_5_3_u00_r1_network.node[91].content_store 	decision_yes[91] 	10205
scalar tree_5_3_u00_r1_network.node[91].content_store 	decision_no[91] 	0
scalar tree_5_3_u00_r1_network.node[91].content_store 	decision_ratio[91] 	1
scalar tree_5_3_u00_r1_network.node[92].core_layer 	interests[92] 	11889
scalar tree_5_3_u00_r1_network.node[92].core_layer 	data[92] 	9936
scalar tree_5_3_u00_r1_network.node[92].content_store 	p_hit[92] 	0.16443771553537
scalar tree_5_3_u00_r1_network.node[92].content_store 	hits[92] 	1955
scalar tree_5_3_u00_r1_network.node[92].content_store 	misses[92] 	9934
scalar tree_5_3_u00_r1_network.node[92].content_store 	decision_yes[92] 	9936
scalar tree_5_3_u00_r1_network.node[92].content_store 	decision_no[92] 	0
scalar tree_5_3_u00_r1_network.node[92].content_store 	decision_ratio[92] 	1
scalar tree_5_3_u00_r1_network.node[93].core_layer 	interests[93] 	12080
scalar tree_5_3_u00_r1_network.node[93].core_layer 	data[93] 	10206
scalar tree_5_3_u00_r1_network.node[93].content_store 	p_hit[93] 	0.15513245033113
scalar tree_5_3_u00_r1_network.node[93].content_store 	hits[93] 	1874
scalar tree_5_3_u00_r1_network.node[93].content_store 	misses[93] 	10206
scalar tree_5_3_u00_r1_network.node[93].content_store 	decision_yes[93] 	10206
scalar tree_5_3_u00_r1_network.node[93].content_store 	decision_no[93] 	0
scalar tree_5_3_u00_r1_network.node[93].content_store 	decision_ratio[93] 	1
scalar tree_5_3_u00_r1_network.node[94].core_layer 	interests[94] 	12288
scalar tree_5_3_u00_r1_network.node[94].core_layer 	data[94] 	10320
scalar tree_5_3_u00_r1_network.node[94].content_store 	p_hit[94] 	0.159912109375
scalar tree_5_3_u00_r1_network.node[94].content_store 	hits[94] 	1965
scalar tree_5_3_u00_r1_network.node[94].content_store 	misses[94] 	10323
scalar tree_5_3_u00_r1_network.node[94].content_store 	decision_yes[94] 	10320
scalar tree_5_3_u00_r1_network.node[94].content_store 	decision_no[94] 	0
scalar tree_5_3_u00_r1_network.node[94].content_store 	decision_ratio[94] 	1
scalar tree_5_3_u00_r1_network.node[95].core_layer 	interests[95] 	12126
scalar tree_5_3_u00_r1_network.node[95].core_layer 	data[95] 	10254
scalar tree_5_3_u00_r1_network.node[95].content_store 	p_hit[95] 	0.15437902028699
scalar tree_5_3_u00_r1_network.node[95].content_store 	hits[95] 	1872
scalar tree_5_3_u00_r1_network.node[95].content_store 	misses[95] 	10254
scalar tree_5_3_u00_r1_network.node[95].content_store 	decision_yes[95] 	10254
scalar tree_5_3_u00_r1_network.node[95].content_store 	decision_no[95] 	0
scalar tree_5_3_u00_r1_network.node[95].content_store 	decision_ratio[95] 	1
scalar tree_5_3_u00_r1_network.node[96].core_layer 	interests[96] 	12037
scalar tree_5_3_u00_r1_network.node[96].core_layer 	data[96] 	10265
scalar tree_5_3_u00_r1_network.node[96].content_store 	p_hit[96] 	0.14696352911855
scalar tree_5_3_u00_r1_network.node[96].content_store 	hits[96] 	1769
scalar tree_5_3_u00_r1_network.node[96].content_store 	misses[96] 	10268
scalar tree_5_3_u00_r1_network.node[96].content_store 	decision_yes[96] 	10265
scalar tree_5_3_u00_r1_network.node[96].content_store 	decision_no[96] 	0
scalar tree_5_3_u00_r1_network.node[96].content_store 	decision_ratio[96] 	1
scalar tree_5_3_u00_r1_network.node[97].core_layer 	interests[97] 	11953
scalar tree_5_3_u00_r1_network.node[97].core_layer 	data[97] 	10058
scalar tree_5_3_u00_r1_network.node[97].content_store 	p_hit[97] 	0.15837028361081
scalar tree_5_3_u00_r1_network.node[97].content_store 	hits[97] 	1893
scalar tree_5_3_u00_r1_network.node[97].content_store 	misses[97] 	10060
scalar tree_5_3_u00_r1_network.node[97].content_store 	decision_yes[97] 	10058
scalar tree_5_3_u00_r1_network.node[97].content_store 	decision_no[97] 	0
scalar tree_5_3_u00_r1_network.node[97].content_store 	decision_ratio[97] 	1
scalar tree_5_3_u00_r1_network.node[98].core_layer 	interests[98] 	11860
scalar tree_5_3_u00_r1_network.node[98].core_layer 	data[98] 	9941
scalar tree_5_3_u00_r1_network.node[98].content_store 	p_hit[98] 	0.16172006745363
scalar tree_5_3_u00_r1_network.node[98].content_store 	hits[98] 	1918
scalar tree_5_3_u00_r1_network.node[98].content_store 	misses[98] 	9942
scalar tree_5_3_u00_r1_network.node[98].content_store 	decision_yes[98] 	9941
scalar tree_5_3_u00_r1_network.node[98].content_store 	decision_no[98] 	0
scalar tree_5_3_u00_r1_network.node[98].content_store 	decision_ratio[98] 	1
scalar tree_5_3_u00_r1_network.node[99].core_layer 	interests[99] 	12211
scalar tree_5_3_u00_r1_network.node[99].core_layer 	data[99] 	10277
scalar tree_5_3_u00_r1_network.node[99].content_store 	p_hit[99] 	0.15829989353861
scalar tree_5_3_u00_r1_network.node[99].content_store 	hits[99] 	1933
scalar tree_5_3_u00_r1_network.node[99].content_store 	misses[99] 	10278
scalar tree_5_3_u00_r1_network.node[99].content_store 	decision_yes[99] 	10277
scalar tree_5_3_u00_r1_network.node[99].content_store 	decision_no[99] 	0
scalar tree_5_3_u00_r1_network.node[99].content_store 	decision_ratio[99] 	1
scalar tree_5_3_u00_r1_network.node[100].core_layer 	interests[100] 	11914
scalar tree_5_3_u00_r1_network.node[100].core_layer 	data[100] 	10061
scalar tree_5_3_u00_r1_network.node[100].content_store 	p_hit[100] 	0.15553130770522
scalar tree_5_3_u00_r1_network.node[100].content_store 	hits[100] 	1853
scalar tree_5_3_u00_r1_network.node[100].content_store 	misses[100] 	10061
scalar tree_5_3_u00_r1_network.node[100].content_store 	decision_yes[100] 	10061
scalar tree_5_3_u00_r1_network.node[100].content_store 	decision_no[100] 	0
scalar tree_5_3_u00_r1_network.node[100].content_store 	decision_ratio[100] 	1
scalar tree_5_3_u00_r1_network.node[101].core_layer 	interests[101] 	11979
scalar tree_5_3_u00_r1_network.node[101].core_layer 	data[101] 	10191
scalar tree_5_3_u00_r1_network.node[101].content_store 	p_hit[101] 	0.14926120711245
scalar tree_5_3_u00_r1_network.node[101].content_store 	hits[101] 	1788
scalar tree_5_3_u00_r1_network.node[101].content_store 	misses[101] 	10191
scalar tree_5_3_u00_r1_network.node[101].content_store 	decision_yes[101] 	10191
scalar tree_5_3_u00_r1_network.node[101].content_store 	decision_no[101] 	0
scalar tree_5_3_u00_r1_network.node[101].content_store 	decision_ratio[101] 	1
scalar tree_5_3_u00_r1_network.node[102].core_layer 	interests[102] 	11740
scalar tree_5_3_u00_r1_network.node[102].core_layer 	data[102] 	9869
scalar tree_5_3_u00_r1_network.node[102].content_store 	p_hit[102] 	0.15928449744463
scalar tree_5_3_u00_r1_network.node[102].content_store 	hits[102] 	1870
scalar tree_5_3_u00_r1_network.node[102].content_store 	misses[102] 	9870
scalar tree_5_3_u00_r1_network.node[102].content_store 	decision_yes[102] 	9869
scalar tree_5_3_u00_r1_network.node[102].content_store 	decision_no[102] 	0
scalar tree_5_3_u00_r1_network.node[102].content_store 	decision_ratio[102] 	1
scalar tree_5_3_u00_r1_network.node[103].core_layer 	interests[103] 	12089
scalar tree_5_3_u00_r1_network.node[103].core_layer 	data[103] 	10214
scalar tree_5_3_u00_r1_network.node[103].content_store 	p_hit[103] 	0.15509967739267
scalar tree_5_3_u00_r1_network.node[103].content_store 	hits[103] 	1875
scalar tree_5_3_u00_r1_network.node[103].content_store 	misses[103] 	10214
scalar tree_5_3_u00_r1_network.node[103].content_store 	decision_yes[103] 	10214
scalar tree_5_3_u00_r1_network.node[103].content_store 	decision_no[103] 	0
scalar tree_5_3_u00_r1_network.node[103].content_store 	decision_ratio[103] 	1
scalar tree_5_3_u00_r1_network.node[104].core_layer 	interests[104] 	11952
scalar tree_5_3_u00_r1_network.node[104].core_layer 	data[104] 	10048
scalar tree_5_3_u00_r1_network.node[104].content_store 	p_hit[104] 	0.15913654618474
scalar tree_5_3_u00_r1_network.node[104].content_store 	hits[104] 	1902
scalar tree_5_3_u00_r1_network.node[104].content_store 	misses[104] 	10050
scalar tree_5_3_u00_r1_network.node[104].content_store 	decision_yes[104] 	10048
scalar tree_5_3_u00_r1_network.node[104].content_store 	decision_no[104] 	0
scalar tree_5_3_u00_r1_network.node[104].content_store 	decision_ratio[104] 	1
scalar tree_5_3_u00_r1_network.node[105].core_layer 	interests[105] 	12060
scalar tree_5_3_u00_r1_network.node[105].core_layer 	data[105] 	10217
scalar tree_5_3_u00_r1_network.node[105].content_store 	p_hit[105] 	0.15273631840796
scalar tree_5_3_u00_r1_network.node[105].content_store 	hits[105] 	1842
scalar tree_5_3_u00_r1_network.node[105].content_store 	misses[105] 	10218
scalar tree_5_3_u00_r1_network.node[105].content_store 	decision_yes[105] 	10217
scalar tree_5_3_u00_r1_network.node[105].content_store 	decision_no[105] 	0
scalar tree_5_3_u00_r1_network.node[105].content_store 	decision_ratio[105] 	1
scalar tree_5_3_u00_r1_network.node[106].core_layer 	interests[106] 	11835
scalar tree_5_3_u00_r1_network.node[106].core_layer 	data[106] 	10026
scalar tree_5_3_u00_r1_network.node[106].content_store 	p_hit[106] 	0.15259822560203
scalar tree_5_3_u00_r1_network.node[106].content_store 	hits[106] 	1806
scalar tree_5_3_u00_r1_network.node[106].content_store 	misses[106] 	10029
scalar tree_5_3_u00_r1_network.node[106].content_store 	decision_yes[106] 	10026
scalar tree_5_3_u00_r1_network.node[106].content_store 	decision_no[106] 	0
scalar tree_5_3_u00_r1_network.node[106].content_store 	decision_ratio[106] 	1
scalar tree_5_3_u00_r1_network.node[107].core_layer 	interests[107] 	12210
scalar tree_5_3_u00_r1_network.node[107].core_layer 	data[107] 	10234
scalar tree_5_3_u00_r1_network.node[107].content_store 	p_hit[107] 	0.16183456183456
scalar tree_5_3_u00_r1_network.node[107].content_store 	hits[107] 	1976
scalar tree_5_3_u00_r1_network.node[107].content_store 	misses[107] 	10234
scalar tree_5_3_u00_r1_network.node[107].content_store 	decision_yes[107] 	10234
scalar tree_5_3_u00_r1_network.node[107].content_store 	decision_no[107] 	0
scalar tree_5_3_u00_r1_network.node[107].content_store 	decision_ratio[107] 	1
scalar tree_5_3_u00_r1_network.node[108].core_layer 	interests[108] 	11998
scalar tree_5_3_u00_r1_network.node[108].core_layer 	data[108] 	10101
scalar tree_5_3_u00_r1_network.node[108].content_store 	p_hit[108] 	0.15794299049842
scalar tree_5_3_u00_r1_network.node[108].content_store 	hits[108] 	1895
scalar tree_5_3_u00_r1_network.node[108].content_store 	misses[108] 	10103
scalar tree_5_3_u00_r1_network.node[108].content_store 	decision_yes[108] 	10101
scalar tree_5_3_u00_r1_network.node[108].content_store 	decision_no[108] 	0
scalar tree_5_3_u00_r1_network.node[108].content_store 	decision_ratio[108] 	1
scalar tree_5_3_u00_r1_network.node[109].core_layer 	interests[109] 	12068
scalar tree_5_3_u00_r1_network.node[109].core_layer 	data[109] 	10135
scalar tree_5_3_u00_r1_network.node[109].content_store 	p_hit[109] 	0.16009280742459
scalar tree_5_3_u00_r1_network.node[109].content_store 	hits[109] 	1932
scalar tree_5_3_u00_r1_network.node[109].content_store 	misses[109] 	10136
scalar tree_5_3_u00_r1_network.node[109].content_store 	decision_yes[109] 	10135
scalar tree_5_3_u00_r1_network.node[109].content_store 	decision_no[109] 	0
scalar tree_5_3_u00_r1_network.node[109].content_store 	decision_ratio[109] 	1
scalar tree_5_3_u00_r1_network.node[110].core_layer 	interests[110] 	12030
scalar tree_5_3_u00_r1_network.node[110].core_layer 	data[110] 	10121
scalar tree_5_3_u00_r1_network.node[110].content_store 	p_hit[110] 	0.15843724023275
scalar tree_5_3_u00_r1_network.node[110].content_store 	hits[110] 	1906
scalar tree_5_3_u00_r1_network.node[110].content_store 	misses[110] 	10124
scalar tree_5_3_u00_r1_network.node[110].content_store 	decision_yes[110] 	10121
scalar tree_5_3_u00_r1_network.node[110].content_store 	decision_no[110] 	0
scalar tree_5_3_u00_r1_network.node[110].content_store 	decision_ratio[110] 	1
scalar tree_5_3_u00_r1_network.node[111].core_layer 	interests[111] 	11943
scalar tree_5_3_u00_r1_network.node[111].core_layer 	data[111] 	10018
scalar tree_5_3_u00_r1_network.node[111].content_store 	p_hit[111] 	0.16109855145273
scalar tree_5_3_u00_r1_network.node[111].content_store 	hits[111] 	1924
scalar tree_5_3_u00_r1_network.node[111].content_store 	misses[111] 	10019
scalar tree_5_3_u00_r1_network.node[111].content_store 	decision_yes[111] 	10018
scalar tree_5_3_u00_r1_network.node[111].content_store 	decision_no[111] 	0
scalar tree_5_3_u00_r1_network.node[111].content_store 	decision_ratio[111] 	1
scalar tree_5_3_u00_r1_network.node[112].core_layer 	interests[112] 	12115
scalar tree_5_3_u00_r1_network.node[112].core_layer 	data[112] 	10232
scalar tree_5_3_u00_r1_network.node[112].content_store 	p_hit[112] 	0.15550969872059
scalar tree_5_3_u00_r1_network.node[112].content_store 	hits[112] 	1884
scalar tree_5_3_u00_r1_network.node[112].content_store 	misses[112] 	10231
scalar tree_5_3_u00_r1_network.node[112].content_store 	decision_yes[112] 	10232
scalar tree_5_3_u00_r1_network.node[112].content_store 	decision_no[112] 	0
scalar tree_5_3_u00_r1_network.node[112].content_store 	decision_ratio[112] 	1
scalar tree_5_3_u00_r1_network.node[113].core_layer 	interests[113] 	12021
scalar tree_5_3_u00_r1_network.node[113].core_layer 	data[113] 	10101
scalar tree_5_3_u00_r1_network.node[113].content_store 	p_hit[113] 	0.15963730138924
scalar tree_5_3_u00_r1_network.node[113].content_store 	hits[113] 	1919
scalar tree_5_3_u00_r1_network.node[113].content_store 	misses[113] 	10102
scalar tree_5_3_u00_r1_network.node[113].content_store 	decision_yes[113] 	10101
scalar tree_5_3_u00_r1_network.node[113].content_store 	decision_no[113] 	0
scalar tree_5_3_u00_r1_network.node[113].content_store 	decision_ratio[113] 	1
scalar tree_5_3_u00_r1_network.node[114].core_layer 	interests[114] 	11836
scalar tree_5_3_u00_r1_network.node[114].core_layer 	data[114] 	9999
scalar tree_5_3_u00_r1_network.node[114].content_store 	p_hit[114] 	0.15511997296384
scalar tree_5_3_u00_r1_network.node[114].content_store 	hits[114] 	1836
scalar tree_5_3_u00_r1_network.node[114].content_store 	misses[114] 	10000
scalar tree_5_3_u00_r1_network.node[114].content_store 	decision_yes[114] 	9999
scalar tree_5_3_u00_r1_network.node[114].content_store 	decision_no[114] 	0
scalar tree_5_3_u00_r1_network.node[114].content_store 	decision_ratio[114] 	1
scalar tree_5_3_u00_r1_network.node[115].core_layer 	interests[115] 	11955
scalar tree_5_3_u00_r1_network.node[115].core_layer 	data[115] 	10055
scalar tree_5_3_u00_r1_network.node[115].content_store 	p_hit[115] 	0.15859473023839
scalar tree_5_3_u00_r1_network.node[115].content_store 	hits[115] 	1896
scalar tree_5_3_u00_r1_network.node[115].content_store 	misses[115] 	10059
scalar tree_5_3_u00_r1_network.node[115].content_store 	decision_yes[115] 	10055
scalar tree_5_3_u00_r1_network.node[115].content_store 	decision_no[115] 	0
scalar tree_5_3_u00_r1_network.node[115].content_store 	decision_ratio[115] 	1
scalar tree_5_3_u00_r1_network.node[116].core_layer 	interests[116] 	11944
scalar tree_5_3_u00_r1_network.node[116].core_layer 	data[116] 	10137
scalar tree_5_3_u00_r1_network.node[116].content_store 	p_hit[116] 	0.15128935030141
scalar tree_5_3_u00_r1_network.node[116].content_store 	hits[116] 	1807
scalar tree_5_3_u00_r1_network.node[116].content_store 	misses[116] 	10137
scalar tree_5_3_u00_r1_network.node[116].content_store 	decision_yes[116] 	10137
scalar tree_5_3_u00_r1_network.node[116].content_store 	decision_no[116] 	0
scalar tree_5_3_u00_r1_network.node[116].content_store 	decision_ratio[116] 	1
scalar tree_5_3_u00_r1_network.node[117].core_layer 	interests[117] 	12075
scalar tree_5_3_u00_r1_network.node[117].core_layer 	data[117] 	10217
scalar tree_5_3_u00_r1_network.node[117].content_store 	p_hit[117] 	0.15378881987578
scalar tree_5_3_u00_r1_network.node[117].content_store 	hits[117] 	1857
scalar tree_5_3_u00_r1_network.node[117].content_store 	misses[117] 	10218
scalar tree_5_3_u00_r1_network.node[117].content_store 	decision_yes[117] 	10217
scalar tree_5_3_u00_r1_network.node[117].content_store 	decision_no[117] 	0
scalar tree_5_3_u00_r1_network.node[117].content_store 	decision_ratio[117] 	1
scalar tree_5_3_u00_r1_network.node[118].core_layer 	interests[118] 	12168
scalar tree_5_3_u00_r1_network.node[118].core_layer 	data[118] 	10218
scalar tree_5_3_u00_r1_network.node[118].content_store 	p_hit[118] 	0.16025641025641
scalar tree_5_3_u00_r1_network.node[118].content_store 	hits[118] 	1950
scalar tree_5_3_u00_r1_network.node[118].content_store 	misses[118] 	10218
scalar tree_5_3_u00_r1_network.node[118].content_store 	decision_yes[118] 	10218
scalar tree_5_3_u00_r1_network.node[118].content_store 	decision_no[118] 	0
scalar tree_5_3_u00_r1_network.node[118].content_store 	decision_ratio[118] 	1
scalar tree_5_3_u00_r1_network.node[119].core_layer 	interests[119] 	11888
scalar tree_5_3_u00_r1_network.node[119].core_layer 	data[119] 	10095
scalar tree_5_3_u00_r1_network.node[119].content_store 	p_hit[119] 	0.15065612382234
scalar tree_5_3_u00_r1_network.node[119].content_store 	hits[119] 	1791
scalar tree_5_3_u00_r1_network.node[119].content_store 	misses[119] 	10097
scalar tree_5_3_u00_r1_network.node[119].content_store 	decision_yes[119] 	10095
scalar tree_5_3_u00_r1_network.node[119].content_store 	decision_no[119] 	0
scalar tree_5_3_u00_r1_network.node[119].content_store 	decision_ratio[119] 	1
scalar tree_5_3_u00_r1_network.node[120].core_layer 	interests[120] 	11861
scalar tree_5_3_u00_r1_network.node[120].core_layer 	data[120] 	10048
scalar tree_5_3_u00_r1_network.node[120].content_store 	p_hit[120] 	0.15276958097968
scalar tree_5_3_u00_r1_network.node[120].content_store 	hits[120] 	1812
scalar tree_5_3_u00_r1_network.node[120].content_store 	misses[120] 	10049
scalar tree_5_3_u00_r1_network.node[120].content_store 	decision_yes[120] 	10048
scalar tree_5_3_u00_r1_network.node[120].content_store 	decision_no[120] 	0
scalar tree_5_3_u00_r1_network.node[120].content_store 	decision_ratio[120] 	1
scalar tree_5_3_u00_r1_network.client[40] 	hdistance[40] 	4.2159554113634
scalar tree_5_3_u00_r1_network.client[40] 	downloads[40] 	12021
scalar tree_5_3_u00_r1_network.client[40] 	avg_time[40] 	0.006744467865
scalar tree_5_3_u00_r1_network.client[41] 	hdistance[41] 	4.1999833762779
scalar tree_5_3_u00_r1_network.client[41] 	downloads[41] 	12031
scalar tree_5_3_u00_r1_network.client[41] 	avg_time[41] 	0.006718730005
scalar tree_5_3_u00_r1_network.client[42] 	hdistance[42] 	4.2151556156969
scalar tree_5_3_u00_r1_network.client[42] 	downloads[42] 	11824
scalar tree_5_3_u00_r1_network.client[42] 	avg_time[42] 	0.006743795064
scalar tree_5_3_u00_r1_network.client[43] 	hdistance[43] 	4.2413850095034
scalar tree_5_3_u00_r1_network.client[43] 	downloads[43] 	12101
scalar tree_5_3_u00_r1_network.client[43] 	avg_time[43] 	0.006785551729
scalar tree_5_3_u00_r1_network.client[44] 	hdistance[44] 	4.2145705266656
scalar tree_5_3_u00_r1_network.client[44] 	downloads[44] 	12038
scalar tree_5_3_u00_r1_network.client[44] 	avg_time[44] 	0.00674180472
scalar tree_5_3_u00_r1_network.client[45] 	hdistance[45] 	4.1949643862845
scalar tree_5_3_u00_r1_network.client[45] 	downloads[45] 	12074
scalar tree_5_3_u00_r1_network.client[45] 	avg_time[45] 	0.006710761444
scalar tree_5_3_u00_r1_network.client[46] 	hdistance[46] 	4.1987660496915
scalar tree_5_3_u00_r1_network.client[46] 	downloads[46] 	11994
scalar tree_5_3_u00_r1_network.client[46] 	avg_time[46] 	0.00671680187
scalar tree_5_3_u00_r1_network.client[47] 	hdistance[47] 	4.1884905500466
scalar tree_5_3_u00_r1_network.client[47] 	downloads[47] 	11799
scalar tree_5_3_u00_r1_network.client[47] 	avg_time[47] 	0.006701062227
scalar tree_5_3_u00_r1_network.client[48] 	hdistance[48] 	4.1985367475889
scalar tree_5_3_u00_r1_network.client[48] 	downloads[48] 	12028
scalar tree_5_3_u00_r1_network.client[48] 	avg_time[48] 	0.006716349321
scalar tree_5_3_u00_r1_network.client[49] 	hdistance[49] 	4.2048562194415
scalar tree_5_3_u00_r1_network.client[49] 	downloads[49] 	12067
scalar tree_5_3_u00_r1_network.client[49] 	avg_time[49] 	0.006727120951
scalar tree_5_3_u00_r1_network.client[50] 	hdistance[50] 	4.2300364479788
scalar tree_5_3_u00_r1_network.client[50] 	downloads[50] 	12072
scalar tree_5_3_u00_r1_network.client[50] 	avg_time[50] 	0.006767335637
scalar tree_5_3_u00_r1_network.client[51] 	hdistance[51] 	4.2115384615384
scalar tree_5_3_u00_r1_network.client[51] 	downloads[51] 	11960
scalar tree_5_3_u00_r1_network.client[51] 	avg_time[51] 	0.006737547866
scalar tree_5_3_u00_r1_network.client[52] 	hdistance[52] 	4.2353136961225
scalar tree_5_3_u00_r1_network.client[52] 	downloads[52] 	12018
scalar tree_5_3_u00_r1_network.client[52] 	avg_time[52] 	0.006774892632
scalar tree_5_3_u00_r1_network.client[53] 	hdistance[53] 	4.2329734219269
scalar tree_5_3_u00_r1_network.client[53] 	downloads[53] 	12040
scalar tree_5_3_u00_r1_network.client[53] 	avg_time[53] 	0.006772099252
scalar tree_5_3_u00_r1_network.client[54] 	hdistance[54] 	4.2129473328832
scalar tree_5_3_u00_r1_network.client[54] 	downloads[54] 	11848
scalar tree_5_3_u00_r1_network.client[54] 	avg_time[54] 	0.006738990789
scalar tree_5_3_u00_r1_network.client[55] 	hdistance[55] 	4.1892568187505
scalar tree_5_3_u00_r1_network.client[55] 	downloads[55] 	11989
scalar tree_5_3_u00_r1_network.client[55] 	avg_time[55] 	0.006701999315
scalar tree_5_3_u00_r1_network.client[56] 	hdistance[56] 	4.2106144316089
scalar tree_5_3_u00_r1_network.client[56] 	downloads[56] 	11946
scalar tree_5_3_u00_r1_network.client[56] 	avg_time[56] 	0.006735012494
scalar tree_5_3_u00_r1_network.client[57] 	hdistance[57] 	4.2091344135673
scalar tree_5_3_u00_r1_network.client[57] 	downloads[57] 	11911
scalar tree_5_3_u00_r1_network.client[57] 	avg_time[57] 	0.006734314356
scalar tree_5_3_u00_r1_network.client[58] 	hdistance[58] 	4.2102015631427
scalar tree_5_3_u00_r1_network.client[58] 	downloads[58] 	12155
scalar tree_5_3_u00_r1_network.client[58] 	avg_time[58] 	0.006735042065
scalar tree_5_3_u00_r1_network.client[59] 	hdistance[59] 	4.2369192130599
scalar tree_5_3_u00_r1_network.client[59] 	downloads[59] 	11945
scalar tree_5_3_u00_r1_network.client[59] 	avg_time[59] 	0.00677765033
scalar tree_5_3_u00_r1_network.client[60] 	hdistance[60] 	4.2400166389351
scalar tree_5_3_u00_r1_network.client[60] 	downloads[60] 	12020
scalar tree_5_3_u00_r1_network.client[60] 	avg_time[60] 	0.006781995577
scalar tree_5_3_u00_r1_network.client[61] 	hdistance[61] 	4.2105484876569
scalar tree_5_3_u00_r1_network.client[61] 	downloads[61] 	11869
scalar tree_5_3_u00_r1_network.client[61] 	avg_time[61] 	0.00673604718
scalar tree_5_3_u00_r1_network.client[62] 	hdistance[62] 	4.1814814814815
scalar tree_5_3_u00_r1_network.client[62] 	downloads[62] 	12150
scalar tree_5_3_u00_r1_network.client[62] 	avg_time[62] 	0.006689808195
scalar tree_5_3_u00_r1_network.client[63] 	hdistance[63] 	4.2157669519421
scalar tree_5_3_u00_r1_network.client[63] 	downloads[63] 	12152
scalar tree_5_3_u00_r1_network.client[63] 	avg_time[63] 	0.006742733139
scalar tree_5_3_u00_r1_network.client[64] 	hdistance[64] 	4.2190237797247
scalar tree_5_3_u00_r1_network.client[64] 	downloads[64] 	11985
scalar tree_5_3_u00_r1_network.client[64] 	avg_time[64] 	0.006749783686
scalar tree_5_3_u00_r1_network.client[65] 	hdistance[65] 	4.2352500624116
scalar tree_5_3_u00_r1_network.client[65] 	downloads[65] 	12017
scalar tree_5_3_u00_r1_network.client[65] 	avg_time[65] 	0.006775472824
scalar tree_5_3_u00_r1_network.client[66] 	hdistance[66] 	4.1580459770115
scalar tree_5_3_u00_r1_network.client[66] 	downloads[66] 	12180
scalar tree_5_3_u00_r1_network.client[66] 	avg_time[66] 	0.006652114204
scalar tree_5_3_u00_r1_network.client[67] 	hdistance[67] 	4.2153846153846
scalar tree_5_3_u00_r1_network.client[67] 	downloads[67] 	12025
scalar tree_5_3_u00_r1_network.client[67] 	avg_time[67] 	0.006744029592
scalar tree_5_3_u00_r1_network.client[68] 	hdistance[68] 	4.2345017987116
scalar tree_5_3_u00_r1_network.client[68] 	downloads[68] 	11953
scalar tree_5_3_u00_r1_network.client[68] 	avg_time[68] 	0.006774815481
scalar tree_5_3_u00_r1_network.client[69] 	hdistance[69] 	4.2083368000666
scalar tree_5_3_u00_r1_network.client[69] 	downloads[69] 	12019
scalar tree_5_3_u00_r1_network.client[69] 	avg_time[69] 	0.006732192268
scalar tree_5_3_u00_r1_network.client[70] 	hdistance[70] 	4.2423130250387
scalar tree_5_3_u00_r1_network.client[70] 	downloads[70] 	12261
scalar tree_5_3_u00_r1_network.client[70] 	avg_time[70] 	0.006787211465
scalar tree_5_3_u00_r1_network.client[71] 	hdistance[71] 	4.1960093896714
scalar tree_5_3_u00_r1_network.client[71] 	downloads[71] 	11928
scalar tree_5_3_u00_r1_network.client[71] 	avg_time[71] 	0.006712897501
scalar tree_5_3_u00_r1_network.client[72] 	hdistance[72] 	4.1840219926691
scalar tree_5_3_u00_r1_network.client[72] 	downloads[72] 	12004
scalar tree_5_3_u00_r1_network.client[72] 	avg_time[72] 	0.006692334819
scalar tree_5_3_u00_r1_network.client[73] 	hdistance[73] 	4.2468809386103
scalar tree_5_3_u00_r1_network.client[73] 	downloads[73] 	12103
scalar tree_5_3_u00_r1_network.client[73] 	avg_time[73] 	0.006793298996
scalar tree_5_3_u00_r1_network.client[74] 	hdistance[74] 	4.2309302520305
scalar tree_5_3_u00_r1_network.client[74] 	downloads[74] 	11943
scalar tree_5_3_u00_r1_network.client[74] 	avg_time[74] 	0.006768579844
scalar tree_5_3_u00_r1_network.client[75] 	hdistance[75] 	4.2069925489233
scalar tree_5_3_u00_r1_network.client[75] 	downloads[75] 	12213
scalar tree_5_3_u00_r1_network.client[75] 	avg_time[75] 	0.006730069562
scalar tree_5_3_u00_r1_network.client[76] 	hdistance[76] 	4.2084665881165
scalar tree_5_3_u00_r1_network.client[76] 	downloads[76] 	11882
scalar tree_5_3_u00_r1_network.client[76] 	avg_time[76] 	0.006731826677
scalar tree_5_3_u00_r1_network.client[77] 	hdistance[77] 	4.2247379454927
scalar tree_5_3_u00_r1_network.client[77] 	downloads[77] 	11925
scalar tree_5_3_u00_r1_network.client[77] 	avg_time[77] 	0.006758229997
scalar tree_5_3_u00_r1_network.client[78] 	hdistance[78] 	4.2189205070091
scalar tree_5_3_u00_r1_network.client[78] 	downloads[78] 	11913
scalar tree_5_3_u00_r1_network.client[78] 	avg_time[78] 	0.006748650224
scalar tree_5_3_u00_r1_network.client[79] 	hdistance[79] 	4.2326088780733
scalar tree_5_3_u00_r1_network.client[79] 	downloads[79] 	11917
scalar tree_5_3_u00_r1_network.client[79] 	avg_time[79] 	0.006770670007
scalar tree_5_3_u00_r1_network.client[80] 	hdistance[80] 	4.2511445389143
scalar tree_5_3_u00_r1_network.client[80] 	downloads[80] 	12232
scalar tree_5_3_u00_r1_network.client[80] 	avg_time[80] 	0.006801392393
scalar tree_5_3_u00_r1_network.client[81] 	hdistance[81] 	4.1915033755969
scalar tree_5_3_u00_r1_network.client[81] 	downloads[81] 	12146
scalar tree_5_3_u00_r1_network.client[81] 	avg_time[81] 	0.006705540202
scalar tree_5_3_u00_r1_network.client[82] 	hdistance[82] 	4.205517018874
scalar tree_5_3_u00_r1_network.client[82] 	downloads[82] 	12398
scalar tree_5_3_u00_r1_network.client[82] 	avg_time[82] 	0.006727884024
scalar tree_5_3_u00_r1_network.client[83] 	hdistance[83] 	4.2092766895616
scalar tree_5_3_u00_r1_network.client[83] 	downloads[83] 	11793
scalar tree_5_3_u00_r1_network.client[83] 	avg_time[83] 	0.006733735694
scalar tree_5_3_u00_r1_network.client[84] 	hdistance[84] 	4.2391120864281
scalar tree_5_3_u00_r1_network.client[84] 	downloads[84] 	11848
scalar tree_5_3_u00_r1_network.client[84] 	avg_time[84] 	0.006781043068
scalar tree_5_3_u00_r1_network.client[85] 	hdistance[85] 	4.2155963302752
scalar tree_5_3_u00_r1_network.client[85] 	downloads[85] 	11990
scalar tree_5_3_u00_r1_network.client[85] 	avg_time[85] 	0.00674464276
scalar tree_5_3_u00_r1_network.client[86] 	hdistance[86] 	4.2046496125323
scalar tree_5_3_u00_r1_network.client[86] 	downloads[86] 	12001
scalar tree_5_3_u00_r1_network.client[86] 	avg_time[86] 	0.006726366926
scalar tree_5_3_u00_r1_network.client[87] 	hdistance[87] 	4.2131705696728
scalar tree_5_3_u00_r1_network.client[87] 	downloads[87] 	12042
scalar tree_5_3_u00_r1_network.client[87] 	avg_time[87] 	0.006739494146
scalar tree_5_3_u00_r1_network.client[88] 	hdistance[88] 	4.2131622516557
scalar tree_5_3_u00_r1_network.client[88] 	downloads[88] 	12080
scalar tree_5_3_u00_r1_network.client[88] 	avg_time[88] 	0.006740279024
scalar tree_5_3_u00_r1_network.client[89] 	hdistance[89] 	4.227699725663
scalar tree_5_3_u00_r1_network.client[89] 	downloads[89] 	12029
scalar tree_5_3_u00_r1_network.client[89] 	avg_time[89] 	0.006762621957
scalar tree_5_3_u00_r1_network.client[90] 	hdistance[90] 	4.2050226776415
scalar tree_5_3_u00_r1_network.client[90] 	downloads[90] 	11906
scalar tree_5_3_u00_r1_network.client[90] 	avg_time[90] 	0.006727209069
scalar tree_5_3_u00_r1_network.client[91] 	hdistance[91] 	4.2326835338034
scalar tree_5_3_u00_r1_network.client[91] 	downloads[91] 	12055
scalar tree_5_3_u00_r1_network.client[91] 	avg_time[91] 	0.006771329513
scalar tree_5_3_u00_r1_network.client[92] 	hdistance[92] 	4.1779497098646
scalar tree_5_3_u00_r1_network.client[92] 	downloads[92] 	11891
scalar tree_5_3_u00_r1_network.client[92] 	avg_time[92] 	0.006684039168
scalar tree_5_3_u00_r1_network.client[93] 	hdistance[93] 	4.2243377483444
scalar tree_5_3_u00_r1_network.client[93] 	downloads[93] 	12080
scalar tree_5_3_u00_r1_network.client[93] 	avg_time[93] 	0.006758041771
scalar tree_5_3_u00_r1_network.client[94] 	hdistance[94] 	4.2002442002442
scalar tree_5_3_u00_r1_network.client[94] 	downloads[94] 	12285
scalar tree_5_3_u00_r1_network.client[94] 	avg_time[94] 	0.006719093639
scalar tree_5_3_u00_r1_network.client[95] 	hdistance[95] 	4.2281048985651
scalar tree_5_3_u00_r1_network.client[95] 	downloads[95] 	12126
scalar tree_5_3_u00_r1_network.client[95] 	avg_time[95] 	0.006763667816
scalar tree_5_3_u00_r1_network.client[96] 	hdistance[96] 	4.2649991690211
scalar tree_5_3_u00_r1_network.client[96] 	downloads[96] 	12034
scalar tree_5_3_u00_r1_network.client[96] 	avg_time[96] 	0.006822050771
scalar tree_5_3_u00_r1_network.client[97] 	hdistance[97] 	4.2080160656012
scalar tree_5_3_u00_r1_network.client[97] 	downloads[97] 	11951
scalar tree_5_3_u00_r1_network.client[97] 	avg_time[97] 	0.006731983459
scalar tree_5_3_u00_r1_network.client[98] 	hdistance[98] 	4.1913314782022
scalar tree_5_3_u00_r1_network.client[98] 	downloads[98] 	11859
scalar tree_5_3_u00_r1_network.client[98] 	avg_time[98] 	0.006705664757
scalar tree_5_3_u00_r1_network.client[99] 	hdistance[99] 	4.2084357084357
scalar tree_5_3_u00_r1_network.client[99] 	downloads[99] 	12210
scalar tree_5_3_u00_r1_network.client[99] 	avg_time[99] 	0.006733050803
scalar tree_5_3_u00_r1_network.client[100] 	hdistance[100] 	4.2223434614739
scalar tree_5_3_u00_r1_network.client[100] 	downloads[100] 	11914
scalar tree_5_3_u00_r1_network.client[100] 	avg_time[100] 	0.006754563922
scalar tree_5_3_u00_r1_network.client[101] 	hdistance[101] 	4.2536939644378
scalar tree_5_3_u00_r1_network.client[101] 	downloads[101] 	11979
scalar tree_5_3_u00_r1_network.client[101] 	avg_time[101] 	0.006804454163
scalar tree_5_3_u00_r1_network.client[102] 	hdistance[102] 	4.203509668626
scalar tree_5_3_u00_r1_network.client[102] 	downloads[102] 	11739
scalar tree_5_3_u00_r1_network.client[102] 	avg_time[102] 	0.006725346007
scalar tree_5_3_u00_r1_network.client[103] 	hdistance[103] 	4.2245016130367
scalar tree_5_3_u00_r1_network.client[103] 	downloads[103] 	12089
scalar tree_5_3_u00_r1_network.client[103] 	avg_time[103] 	0.006757694385
scalar tree_5_3_u00_r1_network.client[104] 	hdistance[104] 	4.2041841004184
scalar tree_5_3_u00_r1_network.client[104] 	downloads[104] 	11950
scalar tree_5_3_u00_r1_network.client[104] 	avg_time[104] 	0.006725430403
scalar tree_5_3_u00_r1_network.client[105] 	hdistance[105] 	4.236255079194
scalar tree_5_3_u00_r1_network.client[105] 	downloads[105] 	12059
scalar tree_5_3_u00_r1_network.client[105] 	avg_time[105] 	0.006776887184
scalar tree_5_3_u00_r1_network.client[106] 	hdistance[106] 	4.2368154158215
scalar tree_5_3_u00_r1_network.client[106] 	downloads[106] 	11832
scalar tree_5_3_u00_r1_network.client[106] 	avg_time[106] 	0.006778457741
scalar tree_5_3_u00_r1_network.client[107] 	hdistance[107] 	4.1908271908272
scalar tree_5_3_u00_r1_network.client[107] 	downloads[107] 	12210
scalar tree_5_3_u00_r1_network.client[107] 	avg_time[107] 	0.006704750105
scalar tree_5_3_u00_r1_network.client[108] 	hdistance[108] 	4.2101533844615
scalar tree_5_3_u00_r1_network.client[108] 	downloads[108] 	11996
scalar tree_5_3_u00_r1_network.client[108] 	avg_time[108] 	0.006734764118
scalar tree_5_3_u00_r1_network.client[109] 	hdistance[109] 	4.1994696279108
scalar tree_5_3_u00_r1_network.client[109] 	downloads[109] 	12067
scalar tree_5_3_u00_r1_network.client[109] 	avg_time[109] 	0.006718519055
scalar tree_5_3_u00_r1_network.client[110] 	hdistance[110] 	4.2076161968903
scalar tree_5_3_u00_r1_network.client[110] 	downloads[110] 	12027
scalar tree_5_3_u00_r1_network.client[110] 	avg_time[110] 	0.006730727223
scalar tree_5_3_u00_r1_network.client[111] 	hdistance[111] 	4.1944397923296
scalar tree_5_3_u00_r1_network.client[111] 	downloads[111] 	11942
scalar tree_5_3_u00_r1_network.client[111] 	avg_time[111] 	0.006709785704
scalar tree_5_3_u00_r1_network.client[112] 	hdistance[112] 	4.2225156817431
scalar tree_5_3_u00_r1_network.client[112] 	downloads[112] 	12116
scalar tree_5_3_u00_r1_network.client[112] 	avg_time[112] 	0.006755734233
scalar tree_5_3_u00_r1_network.client[113] 	hdistance[113] 	4.2017470881864
scalar tree_5_3_u00_r1_network.client[113] 	downloads[113] 	12020
scalar tree_5_3_u00_r1_network.client[113] 	avg_time[113] 	0.006721606868
scalar tree_5_3_u00_r1_network.client[114] 	hdistance[114] 	4.2243346007605
scalar tree_5_3_u00_r1_network.client[114] 	downloads[114] 	11835
scalar tree_5_3_u00_r1_network.client[114] 	avg_time[114] 	0.006758096759
scalar tree_5_3_u00_r1_network.client[115] 	hdistance[115] 	4.2067609405071
scalar tree_5_3_u00_r1_network.client[115] 	downloads[115] 	11951
scalar tree_5_3_u00_r1_network.client[115] 	avg_time[115] 	0.006729955955
scalar tree_5_3_u00_r1_network.client[116] 	hdistance[116] 	4.243553248493
scalar tree_5_3_u00_r1_network.client[116] 	downloads[116] 	11944
scalar tree_5_3_u00_r1_network.client[116] 	avg_time[116] 	0.006788710706
scalar tree_5_3_u00_r1_network.client[117] 	hdistance[117] 	4.2309922146762
scalar tree_5_3_u00_r1_network.client[117] 	downloads[117] 	12074
scalar tree_5_3_u00_r1_network.client[117] 	avg_time[117] 	0.006768731924
scalar tree_5_3_u00_r1_network.client[118] 	hdistance[118] 	4.1987179487179
scalar tree_5_3_u00_r1_network.client[118] 	downloads[118] 	12168
scalar tree_5_3_u00_r1_network.client[118] 	avg_time[118] 	0.006716762603
scalar tree_5_3_u00_r1_network.client[119] 	hdistance[119] 	4.2465926299849
scalar tree_5_3_u00_r1_network.client[119] 	downloads[119] 	11886
scalar tree_5_3_u00_r1_network.client[119] 	avg_time[119] 	0.006793329699
scalar tree_5_3_u00_r1_network.client[120] 	hdistance[120] 	4.2360876897133
scalar tree_5_3_u00_r1_network.client[120] 	downloads[120] 	11860
scalar tree_5_3_u00_r1_network.client[120] 	avg_time[120] 	0.00677693578
