version 2
run General-117-20160820-15:45:23-2644
attr a 0.9
attr cd lce
attr configname General
attr cr lru
attr datetime 20160820-15:45:23
attr experiment General
attr fsize 1
attr inifile hw5115/scenario_A/SPR-LCE.ini
attr iterationvars "$name=tree_4_3, $un=05, $rep=18, $cd=lce, $cr=lru, $fsize=1, $a=0.9, $sl=spr, $ttl=1000, $variance=0.05"
attr iterationvars2 "$name=tree_4_3, $un=05, $rep=18, $cd=lce, $cr=lru, $fsize=1, $a=0.9, $sl=spr, $ttl=1000, $variance=0.05, $repetition=0"
attr measurement "$name=tree_4_3, $un=05, $rep=18, $cd=lce, $cr=lru, $fsize=1, $a=0.9, $sl=spr, $ttl=1000, $variance=0.05"
attr name tree_4_3
attr network networks.${name}_u${un}_r${rep}_network
attr processid 2644
attr rep 18
attr repetition 0
attr replication #0
attr resultdir results
attr runnumber 117
attr seedset 18
attr sl spr
attr ttl 1000
attr un 05
attr variance 0.05

scalar . 	a 	0.9
scalar . 	fsize 	1
scalar . 	rep 	18
scalar . 	ttl 	1000
scalar . 	un 	05
scalar . 	variance 	0.05
scalar tree_4_3_u05_r18_network.content_distribution 	repo-0 	0
scalar tree_4_3_u05_r18_network.content_distribution 	client-0 	13
scalar tree_4_3_u05_r18_network.content_distribution 	client-1 	14
scalar tree_4_3_u05_r18_network.content_distribution 	client-2 	15
scalar tree_4_3_u05_r18_network.content_distribution 	client-3 	16
scalar tree_4_3_u05_r18_network.content_distribution 	client-4 	17
scalar tree_4_3_u05_r18_network.content_distribution 	client-5 	18
scalar tree_4_3_u05_r18_network.content_distribution 	client-6 	19
scalar tree_4_3_u05_r18_network.content_distribution 	client-7 	20
scalar tree_4_3_u05_r18_network.content_distribution 	client-8 	21
scalar tree_4_3_u05_r18_network.content_distribution 	client-9 	22
scalar tree_4_3_u05_r18_network.content_distribution 	client-10 	23
scalar tree_4_3_u05_r18_network.content_distribution 	client-11 	24
scalar tree_4_3_u05_r18_network.content_distribution 	client-12 	25
scalar tree_4_3_u05_r18_network.content_distribution 	client-13 	26
scalar tree_4_3_u05_r18_network.content_distribution 	client-14 	27
scalar tree_4_3_u05_r18_network.content_distribution 	client-15 	28
scalar tree_4_3_u05_r18_network.content_distribution 	client-16 	29
scalar tree_4_3_u05_r18_network.content_distribution 	client-17 	30
scalar tree_4_3_u05_r18_network.content_distribution 	client-18 	31
scalar tree_4_3_u05_r18_network.content_distribution 	client-19 	32
scalar tree_4_3_u05_r18_network.content_distribution 	client-20 	33
scalar tree_4_3_u05_r18_network.content_distribution 	client-21 	34
scalar tree_4_3_u05_r18_network.content_distribution 	client-22 	35
scalar tree_4_3_u05_r18_network.content_distribution 	client-23 	36
scalar tree_4_3_u05_r18_network.content_distribution 	client-24 	37
scalar tree_4_3_u05_r18_network.content_distribution 	client-25 	38
scalar tree_4_3_u05_r18_network.content_distribution 	client-26 	39
scalar tree_4_3_u05_r18_network.content_distribution 	repo-0_card 	100000
scalar tree_4_3_u05_r18_network.content_distribution 	repo-0_price 	0
scalar tree_4_3_u05_r18_network.statistics 	stabilization_time 	494.1
scalar tree_4_3_u05_r18_network.statistics 	p_hit 	0.11380341306736
scalar tree_4_3_u05_r18_network.statistics 	interests 	28013.85
scalar tree_4_3_u05_r18_network.statistics 	data 	19921.525
scalar tree_4_3_u05_r18_network.statistics 	hdistance 	3.2498659664554
scalar tree_4_3_u05_r18_network.statistics 	avg_time 	0.004923813124
scalar tree_4_3_u05_r18_network.statistics 	downloads 	323670
scalar tree_4_3_u05_r18_network.statistics 	total_cost 	0
scalar tree_4_3_u05_r18_network.statistics 	total_replicas 	100000
scalar tree_4_3_u05_r18_network.statistics 	inner_hit 	0.21235517656873
scalar tree_4_3_u05_r18_network.node[0].core_layer 	interests[0] 	258911
scalar tree_4_3_u05_r18_network.node[0].core_layer 	repo_load[0] 	254937
scalar tree_4_3_u05_r18_network.node[0].core_layer 	data[0] 	0
scalar tree_4_3_u05_r18_network.node[0].core_layer 	repo_int[0] 	254937
scalar tree_4_3_u05_r18_network.node[0].content_store 	p_hit[0] 	0.015348903677325
scalar tree_4_3_u05_r18_network.node[0].content_store 	hits[0] 	3974
scalar tree_4_3_u05_r18_network.node[0].content_store 	misses[0] 	254937
scalar tree_4_3_u05_r18_network.node[0].content_store 	decision_yes[0] 	254937
scalar tree_4_3_u05_r18_network.node[0].content_store 	decision_no[0] 	0
scalar tree_4_3_u05_r18_network.node[0].content_store 	decision_ratio[0] 	1
scalar tree_4_3_u05_r18_network.node[1].core_layer 	interests[1] 	166272
scalar tree_4_3_u05_r18_network.node[1].core_layer 	data[1] 	161920
scalar tree_4_3_u05_r18_network.node[1].content_store 	p_hit[1] 	0.026029638183218
scalar tree_4_3_u05_r18_network.node[1].content_store 	hits[1] 	4328
scalar tree_4_3_u05_r18_network.node[1].content_store 	misses[1] 	161944
scalar tree_4_3_u05_r18_network.node[1].content_store 	decision_yes[1] 	161920
scalar tree_4_3_u05_r18_network.node[1].content_store 	decision_no[1] 	0
scalar tree_4_3_u05_r18_network.node[1].content_store 	decision_ratio[1] 	1
scalar tree_4_3_u05_r18_network.node[2].core_layer 	interests[2] 	79148
scalar tree_4_3_u05_r18_network.node[2].core_layer 	data[2] 	77297
scalar tree_4_3_u05_r18_network.node[2].content_store 	p_hit[2] 	0.023336028705716
scalar tree_4_3_u05_r18_network.node[2].content_store 	hits[2] 	1847
scalar tree_4_3_u05_r18_network.node[2].content_store 	misses[2] 	77301
scalar tree_4_3_u05_r18_network.node[2].content_store 	decision_yes[2] 	77297
scalar tree_4_3_u05_r18_network.node[2].content_store 	decision_no[2] 	0
scalar tree_4_3_u05_r18_network.node[2].content_store 	decision_ratio[2] 	1
scalar tree_4_3_u05_r18_network.node[3].core_layer 	interests[3] 	19700
scalar tree_4_3_u05_r18_network.node[3].core_layer 	data[3] 	19694
scalar tree_4_3_u05_r18_network.node[3].content_store 	p_hit[3] 	0.00030456852791878
scalar tree_4_3_u05_r18_network.node[3].content_store 	hits[3] 	6
scalar tree_4_3_u05_r18_network.node[3].content_store 	misses[3] 	19694
scalar tree_4_3_u05_r18_network.node[3].content_store 	decision_yes[3] 	19694
scalar tree_4_3_u05_r18_network.node[3].content_store 	decision_no[3] 	0
scalar tree_4_3_u05_r18_network.node[3].content_store 	decision_ratio[3] 	1
scalar tree_4_3_u05_r18_network.node[4].core_layer 	interests[4] 	30478
scalar tree_4_3_u05_r18_network.node[4].core_layer 	data[4] 	29613
scalar tree_4_3_u05_r18_network.node[4].content_store 	p_hit[4] 	0.028315506266815
scalar tree_4_3_u05_r18_network.node[4].content_store 	hits[4] 	863
scalar tree_4_3_u05_r18_network.node[4].content_store 	misses[4] 	29615
scalar tree_4_3_u05_r18_network.node[4].content_store 	decision_yes[4] 	29613
scalar tree_4_3_u05_r18_network.node[4].content_store 	decision_no[4] 	0
scalar tree_4_3_u05_r18_network.node[4].content_store 	decision_ratio[4] 	1
scalar tree_4_3_u05_r18_network.node[5].core_layer 	interests[5] 	30276
scalar tree_4_3_u05_r18_network.node[5].core_layer 	data[5] 	29421
scalar tree_4_3_u05_r18_network.node[5].content_store 	p_hit[5] 	0.028207160787422
scalar tree_4_3_u05_r18_network.node[5].content_store 	hits[5] 	854
scalar tree_4_3_u05_r18_network.node[5].content_store 	misses[5] 	29422
scalar tree_4_3_u05_r18_network.node[5].content_store 	decision_yes[5] 	29421
scalar tree_4_3_u05_r18_network.node[5].content_store 	decision_no[5] 	0
scalar tree_4_3_u05_r18_network.node[5].content_store 	decision_ratio[5] 	1
scalar tree_4_3_u05_r18_network.node[6].core_layer 	interests[6] 	30091
scalar tree_4_3_u05_r18_network.node[6].core_layer 	data[6] 	29218
scalar tree_4_3_u05_r18_network.node[6].content_store 	p_hit[6] 	0.028978764414609
scalar tree_4_3_u05_r18_network.node[6].content_store 	hits[6] 	872
scalar tree_4_3_u05_r18_network.node[6].content_store 	misses[6] 	29219
scalar tree_4_3_u05_r18_network.node[6].content_store 	decision_yes[6] 	29218
scalar tree_4_3_u05_r18_network.node[6].content_store 	decision_no[6] 	0
scalar tree_4_3_u05_r18_network.node[6].content_store 	decision_ratio[6] 	1
scalar tree_4_3_u05_r18_network.node[7].core_layer 	interests[7] 	30208
scalar tree_4_3_u05_r18_network.node[7].core_layer 	data[7] 	29381
scalar tree_4_3_u05_r18_network.node[7].content_store 	p_hit[7] 	0.027376853813559
scalar tree_4_3_u05_r18_network.node[7].content_store 	hits[7] 	827
scalar tree_4_3_u05_r18_network.node[7].content_store 	misses[7] 	29381
scalar tree_4_3_u05_r18_network.node[7].content_store 	decision_yes[7] 	29381
scalar tree_4_3_u05_r18_network.node[7].content_store 	decision_no[7] 	0
scalar tree_4_3_u05_r18_network.node[7].content_store 	decision_ratio[7] 	1
scalar tree_4_3_u05_r18_network.node[8].core_layer 	interests[8] 	30515
scalar tree_4_3_u05_r18_network.node[8].core_layer 	data[8] 	29652
scalar tree_4_3_u05_r18_network.node[8].content_store 	p_hit[8] 	0.028281173193511
scalar tree_4_3_u05_r18_network.node[8].content_store 	hits[8] 	863
scalar tree_4_3_u05_r18_network.node[8].content_store 	misses[8] 	29652
scalar tree_4_3_u05_r18_network.node[8].content_store 	decision_yes[8] 	29652
scalar tree_4_3_u05_r18_network.node[8].content_store 	decision_no[8] 	0
scalar tree_4_3_u05_r18_network.node[8].content_store 	decision_ratio[8] 	1
scalar tree_4_3_u05_r18_network.node[9].core_layer 	interests[9] 	30475
scalar tree_4_3_u05_r18_network.node[9].core_layer 	data[9] 	29592
scalar tree_4_3_u05_r18_network.node[9].content_store 	p_hit[9] 	0.028941755537326
scalar tree_4_3_u05_r18_network.node[9].content_store 	hits[9] 	882
scalar tree_4_3_u05_r18_network.node[9].content_store 	misses[9] 	29593
scalar tree_4_3_u05_r18_network.node[9].content_store 	decision_yes[9] 	29592
scalar tree_4_3_u05_r18_network.node[9].content_store 	decision_no[9] 	0
scalar tree_4_3_u05_r18_network.node[9].content_store 	decision_ratio[9] 	1
scalar tree_4_3_u05_r18_network.node[10].core_layer 	interests[10] 	50302
scalar tree_4_3_u05_r18_network.node[10].core_layer 	data[10] 	48638
scalar tree_4_3_u05_r18_network.node[10].content_store 	p_hit[10] 	0.033000675917459
scalar tree_4_3_u05_r18_network.node[10].content_store 	hits[10] 	1660
scalar tree_4_3_u05_r18_network.node[10].content_store 	misses[10] 	48642
scalar tree_4_3_u05_r18_network.node[10].content_store 	decision_yes[10] 	48638
scalar tree_4_3_u05_r18_network.node[10].content_store 	decision_no[10] 	0
scalar tree_4_3_u05_r18_network.node[10].content_store 	decision_ratio[10] 	1
scalar tree_4_3_u05_r18_network.node[11].core_layer 	interests[11] 	20346
scalar tree_4_3_u05_r18_network.node[11].core_layer 	data[11] 	19904
scalar tree_4_3_u05_r18_network.node[11].content_store 	p_hit[11] 	0.021576722697336
scalar tree_4_3_u05_r18_network.node[11].content_store 	hits[11] 	439
scalar tree_4_3_u05_r18_network.node[11].content_store 	misses[11] 	19907
scalar tree_4_3_u05_r18_network.node[11].content_store 	decision_yes[11] 	19904
scalar tree_4_3_u05_r18_network.node[11].content_store 	decision_no[11] 	0
scalar tree_4_3_u05_r18_network.node[11].content_store 	decision_ratio[11] 	1
scalar tree_4_3_u05_r18_network.node[12].core_layer 	interests[12] 	20139
scalar tree_4_3_u05_r18_network.node[12].core_layer 	data[12] 	19700
scalar tree_4_3_u05_r18_network.node[12].content_store 	p_hit[12] 	0.021798500422067
scalar tree_4_3_u05_r18_network.node[12].content_store 	hits[12] 	439
scalar tree_4_3_u05_r18_network.node[12].content_store 	misses[12] 	19700
scalar tree_4_3_u05_r18_network.node[12].content_store 	decision_yes[12] 	19700
scalar tree_4_3_u05_r18_network.node[12].content_store 	decision_no[12] 	0
scalar tree_4_3_u05_r18_network.node[12].content_store 	decision_ratio[12] 	1
scalar tree_4_3_u05_r18_network.node[13].core_layer 	interests[13] 	12176
scalar tree_4_3_u05_r18_network.node[13].core_layer 	data[13] 	10253
scalar tree_4_3_u05_r18_network.node[13].content_store 	p_hit[13] 	0.15785151116951
scalar tree_4_3_u05_r18_network.node[13].content_store 	hits[13] 	1922
scalar tree_4_3_u05_r18_network.node[13].content_store 	misses[13] 	10254
scalar tree_4_3_u05_r18_network.node[13].content_store 	decision_yes[13] 	10253
scalar tree_4_3_u05_r18_network.node[13].content_store 	decision_no[13] 	0
scalar tree_4_3_u05_r18_network.node[13].content_store 	decision_ratio[13] 	1
scalar tree_4_3_u05_r18_network.node[14].core_layer 	interests[14] 	12139
scalar tree_4_3_u05_r18_network.node[14].core_layer 	data[14] 	10188
scalar tree_4_3_u05_r18_network.node[14].content_store 	p_hit[14] 	0.1608040201005
scalar tree_4_3_u05_r18_network.node[14].content_store 	hits[14] 	1952
scalar tree_4_3_u05_r18_network.node[14].content_store 	misses[14] 	10187
scalar tree_4_3_u05_r18_network.node[14].content_store 	decision_yes[14] 	10188
scalar tree_4_3_u05_r18_network.node[14].content_store 	decision_no[14] 	0
scalar tree_4_3_u05_r18_network.node[14].content_store 	decision_ratio[14] 	1
scalar tree_4_3_u05_r18_network.node[15].core_layer 	interests[15] 	11933
scalar tree_4_3_u05_r18_network.node[15].core_layer 	data[15] 	10037
scalar tree_4_3_u05_r18_network.node[15].content_store 	p_hit[15] 	0.15880331852845
scalar tree_4_3_u05_r18_network.node[15].content_store 	hits[15] 	1895
scalar tree_4_3_u05_r18_network.node[15].content_store 	misses[15] 	10038
scalar tree_4_3_u05_r18_network.node[15].content_store 	decision_yes[15] 	10037
scalar tree_4_3_u05_r18_network.node[15].content_store 	decision_no[15] 	0
scalar tree_4_3_u05_r18_network.node[15].content_store 	decision_ratio[15] 	1
scalar tree_4_3_u05_r18_network.node[16].core_layer 	interests[16] 	12086
scalar tree_4_3_u05_r18_network.node[16].core_layer 	data[16] 	10165
scalar tree_4_3_u05_r18_network.node[16].content_store 	p_hit[16] 	0.15886149263611
scalar tree_4_3_u05_r18_network.node[16].content_store 	hits[16] 	1920
scalar tree_4_3_u05_r18_network.node[16].content_store 	misses[16] 	10166
scalar tree_4_3_u05_r18_network.node[16].content_store 	decision_yes[16] 	10165
scalar tree_4_3_u05_r18_network.node[16].content_store 	decision_no[16] 	0
scalar tree_4_3_u05_r18_network.node[16].content_store 	decision_ratio[16] 	1
scalar tree_4_3_u05_r18_network.node[17].core_layer 	interests[17] 	11908
scalar tree_4_3_u05_r18_network.node[17].core_layer 	data[17] 	10010
scalar tree_4_3_u05_r18_network.node[17].content_store 	p_hit[17] 	0.15938864628821
scalar tree_4_3_u05_r18_network.node[17].content_store 	hits[17] 	1898
scalar tree_4_3_u05_r18_network.node[17].content_store 	misses[17] 	10010
scalar tree_4_3_u05_r18_network.node[17].content_store 	decision_yes[17] 	10010
scalar tree_4_3_u05_r18_network.node[17].content_store 	decision_no[17] 	0
scalar tree_4_3_u05_r18_network.node[17].content_store 	decision_ratio[17] 	1
scalar tree_4_3_u05_r18_network.node[18].core_layer 	interests[18] 	11964
scalar tree_4_3_u05_r18_network.node[18].core_layer 	data[18] 	10100
scalar tree_4_3_u05_r18_network.node[18].content_store 	p_hit[18] 	0.15571715145436
scalar tree_4_3_u05_r18_network.node[18].content_store 	hits[18] 	1863
scalar tree_4_3_u05_r18_network.node[18].content_store 	misses[18] 	10101
scalar tree_4_3_u05_r18_network.node[18].content_store 	decision_yes[18] 	10100
scalar tree_4_3_u05_r18_network.node[18].content_store 	decision_no[18] 	0
scalar tree_4_3_u05_r18_network.node[18].content_store 	decision_ratio[18] 	1
scalar tree_4_3_u05_r18_network.node[19].core_layer 	interests[19] 	12006
scalar tree_4_3_u05_r18_network.node[19].core_layer 	data[19] 	10061
scalar tree_4_3_u05_r18_network.node[19].content_store 	p_hit[19] 	0.16175245710478
scalar tree_4_3_u05_r18_network.node[19].content_store 	hits[19] 	1942
scalar tree_4_3_u05_r18_network.node[19].content_store 	misses[19] 	10064
scalar tree_4_3_u05_r18_network.node[19].content_store 	decision_yes[19] 	10061
scalar tree_4_3_u05_r18_network.node[19].content_store 	decision_no[19] 	0
scalar tree_4_3_u05_r18_network.node[19].content_store 	decision_ratio[19] 	1
scalar tree_4_3_u05_r18_network.node[20].core_layer 	interests[20] 	12011
scalar tree_4_3_u05_r18_network.node[20].core_layer 	data[20] 	10075
scalar tree_4_3_u05_r18_network.node[20].content_store 	p_hit[20] 	0.1611023228707
scalar tree_4_3_u05_r18_network.node[20].content_store 	hits[20] 	1935
scalar tree_4_3_u05_r18_network.node[20].content_store 	misses[20] 	10076
scalar tree_4_3_u05_r18_network.node[20].content_store 	decision_yes[20] 	10075
scalar tree_4_3_u05_r18_network.node[20].content_store 	decision_no[20] 	0
scalar tree_4_3_u05_r18_network.node[20].content_store 	decision_ratio[20] 	1
scalar tree_4_3_u05_r18_network.node[21].core_layer 	interests[21] 	11871
scalar tree_4_3_u05_r18_network.node[21].core_layer 	data[21] 	9955
scalar tree_4_3_u05_r18_network.node[21].content_store 	p_hit[21] 	0.16131749641985
scalar tree_4_3_u05_r18_network.node[21].content_store 	hits[21] 	1915
scalar tree_4_3_u05_r18_network.node[21].content_store 	misses[21] 	9956
scalar tree_4_3_u05_r18_network.node[21].content_store 	decision_yes[21] 	9955
scalar tree_4_3_u05_r18_network.node[21].content_store 	decision_no[21] 	0
scalar tree_4_3_u05_r18_network.node[21].content_store 	decision_ratio[21] 	1
scalar tree_4_3_u05_r18_network.node[22].core_layer 	interests[22] 	12070
scalar tree_4_3_u05_r18_network.node[22].core_layer 	data[22] 	10153
scalar tree_4_3_u05_r18_network.node[22].content_store 	p_hit[22] 	0.15865782932891
scalar tree_4_3_u05_r18_network.node[22].content_store 	hits[22] 	1915
scalar tree_4_3_u05_r18_network.node[22].content_store 	misses[22] 	10155
scalar tree_4_3_u05_r18_network.node[22].content_store 	decision_yes[22] 	10153
scalar tree_4_3_u05_r18_network.node[22].content_store 	decision_no[22] 	0
scalar tree_4_3_u05_r18_network.node[22].content_store 	decision_ratio[22] 	1
scalar tree_4_3_u05_r18_network.node[23].core_layer 	interests[23] 	11820
scalar tree_4_3_u05_r18_network.node[23].core_layer 	data[23] 	9960
scalar tree_4_3_u05_r18_network.node[23].content_store 	p_hit[23] 	0.1572758037225
scalar tree_4_3_u05_r18_network.node[23].content_store 	hits[23] 	1859
scalar tree_4_3_u05_r18_network.node[23].content_store 	misses[23] 	9961
scalar tree_4_3_u05_r18_network.node[23].content_store 	decision_yes[23] 	9960
scalar tree_4_3_u05_r18_network.node[23].content_store 	decision_no[23] 	0
scalar tree_4_3_u05_r18_network.node[23].content_store 	decision_ratio[23] 	1
scalar tree_4_3_u05_r18_network.node[24].core_layer 	interests[24] 	11971
scalar tree_4_3_u05_r18_network.node[24].core_layer 	data[24] 	10095
scalar tree_4_3_u05_r18_network.node[24].content_store 	p_hit[24] 	0.15671205413082
scalar tree_4_3_u05_r18_network.node[24].content_store 	hits[24] 	1876
scalar tree_4_3_u05_r18_network.node[24].content_store 	misses[24] 	10095
scalar tree_4_3_u05_r18_network.node[24].content_store 	decision_yes[24] 	10095
scalar tree_4_3_u05_r18_network.node[24].content_store 	decision_no[24] 	0
scalar tree_4_3_u05_r18_network.node[24].content_store 	decision_ratio[24] 	1
scalar tree_4_3_u05_r18_network.node[25].core_layer 	interests[25] 	11955
scalar tree_4_3_u05_r18_network.node[25].core_layer 	data[25] 	10106
scalar tree_4_3_u05_r18_network.node[25].content_store 	p_hit[25] 	0.15449602676704
scalar tree_4_3_u05_r18_network.node[25].content_store 	hits[25] 	1847
scalar tree_4_3_u05_r18_network.node[25].content_store 	misses[25] 	10108
scalar tree_4_3_u05_r18_network.node[25].content_store 	decision_yes[25] 	10106
scalar tree_4_3_u05_r18_network.node[25].content_store 	decision_no[25] 	0
scalar tree_4_3_u05_r18_network.node[25].content_store 	decision_ratio[25] 	1
scalar tree_4_3_u05_r18_network.node[26].core_layer 	interests[26] 	12073
scalar tree_4_3_u05_r18_network.node[26].core_layer 	data[26] 	10273
scalar tree_4_3_u05_r18_network.node[26].content_store 	p_hit[26] 	0.14901018802286
scalar tree_4_3_u05_r18_network.node[26].content_store 	hits[26] 	1799
scalar tree_4_3_u05_r18_network.node[26].content_store 	misses[26] 	10274
scalar tree_4_3_u05_r18_network.node[26].content_store 	decision_yes[26] 	10273
scalar tree_4_3_u05_r18_network.node[26].content_store 	decision_no[26] 	0
scalar tree_4_3_u05_r18_network.node[26].content_store 	decision_ratio[26] 	1
scalar tree_4_3_u05_r18_network.node[27].core_layer 	interests[27] 	12036
scalar tree_4_3_u05_r18_network.node[27].core_layer 	data[27] 	10137
scalar tree_4_3_u05_r18_network.node[27].content_store 	p_hit[27] 	0.15785975407112
scalar tree_4_3_u05_r18_network.node[27].content_store 	hits[27] 	1900
scalar tree_4_3_u05_r18_network.node[27].content_store 	misses[27] 	10136
scalar tree_4_3_u05_r18_network.node[27].content_store 	decision_yes[27] 	10137
scalar tree_4_3_u05_r18_network.node[27].content_store 	decision_no[27] 	0
scalar tree_4_3_u05_r18_network.node[27].content_store 	decision_ratio[27] 	1
scalar tree_4_3_u05_r18_network.node[28].core_layer 	interests[28] 	12009
scalar tree_4_3_u05_r18_network.node[28].core_layer 	data[28] 	10117
scalar tree_4_3_u05_r18_network.node[28].content_store 	p_hit[28] 	0.1575485052877
scalar tree_4_3_u05_r18_network.node[28].content_store 	hits[28] 	1892
scalar tree_4_3_u05_r18_network.node[28].content_store 	misses[28] 	10117
scalar tree_4_3_u05_r18_network.node[28].content_store 	decision_yes[28] 	10117
scalar tree_4_3_u05_r18_network.node[28].content_store 	decision_no[28] 	0
scalar tree_4_3_u05_r18_network.node[28].content_store 	decision_ratio[28] 	1
scalar tree_4_3_u05_r18_network.node[29].core_layer 	interests[29] 	11932
scalar tree_4_3_u05_r18_network.node[29].core_layer 	data[29] 	10023
scalar tree_4_3_u05_r18_network.node[29].content_store 	p_hit[29] 	0.15990613476366
scalar tree_4_3_u05_r18_network.node[29].content_store 	hits[29] 	1908
scalar tree_4_3_u05_r18_network.node[29].content_store 	misses[29] 	10024
scalar tree_4_3_u05_r18_network.node[29].content_store 	decision_yes[29] 	10023
scalar tree_4_3_u05_r18_network.node[29].content_store 	decision_no[29] 	0
scalar tree_4_3_u05_r18_network.node[29].content_store 	decision_ratio[29] 	1
scalar tree_4_3_u05_r18_network.node[30].core_layer 	interests[30] 	12239
scalar tree_4_3_u05_r18_network.node[30].core_layer 	data[30] 	10335
scalar tree_4_3_u05_r18_network.node[30].content_store 	p_hit[30] 	0.15532314731596
scalar tree_4_3_u05_r18_network.node[30].content_store 	hits[30] 	1901
scalar tree_4_3_u05_r18_network.node[30].content_store 	misses[30] 	10338
scalar tree_4_3_u05_r18_network.node[30].content_store 	decision_yes[30] 	10335
scalar tree_4_3_u05_r18_network.node[30].content_store 	decision_no[30] 	0
scalar tree_4_3_u05_r18_network.node[30].content_store 	decision_ratio[30] 	1
scalar tree_4_3_u05_r18_network.node[31].core_layer 	interests[31] 	11894
scalar tree_4_3_u05_r18_network.node[31].core_layer 	data[31] 	10072
scalar tree_4_3_u05_r18_network.node[31].content_store 	p_hit[31] 	0.15318648057844
scalar tree_4_3_u05_r18_network.node[31].content_store 	hits[31] 	1822
scalar tree_4_3_u05_r18_network.node[31].content_store 	misses[31] 	10072
scalar tree_4_3_u05_r18_network.node[31].content_store 	decision_yes[31] 	10072
scalar tree_4_3_u05_r18_network.node[31].content_store 	decision_no[31] 	0
scalar tree_4_3_u05_r18_network.node[31].content_store 	decision_ratio[31] 	1
scalar tree_4_3_u05_r18_network.node[32].core_layer 	interests[32] 	11998
scalar tree_4_3_u05_r18_network.node[32].core_layer 	data[32] 	10178
scalar tree_4_3_u05_r18_network.node[32].content_store 	p_hit[32] 	0.15169194865811
scalar tree_4_3_u05_r18_network.node[32].content_store 	hits[32] 	1820
scalar tree_4_3_u05_r18_network.node[32].content_store 	misses[32] 	10178
scalar tree_4_3_u05_r18_network.node[32].content_store 	decision_yes[32] 	10178
scalar tree_4_3_u05_r18_network.node[32].content_store 	decision_no[32] 	0
scalar tree_4_3_u05_r18_network.node[32].content_store 	decision_ratio[32] 	1
scalar tree_4_3_u05_r18_network.node[33].core_layer 	interests[33] 	11775
scalar tree_4_3_u05_r18_network.node[33].core_layer 	data[33] 	9917
scalar tree_4_3_u05_r18_network.node[33].content_store 	p_hit[33] 	0.15762208067941
scalar tree_4_3_u05_r18_network.node[33].content_store 	hits[33] 	1856
scalar tree_4_3_u05_r18_network.node[33].content_store 	misses[33] 	9919
scalar tree_4_3_u05_r18_network.node[33].content_store 	decision_yes[33] 	9917
scalar tree_4_3_u05_r18_network.node[33].content_store 	decision_no[33] 	0
scalar tree_4_3_u05_r18_network.node[33].content_store 	decision_ratio[33] 	1
scalar tree_4_3_u05_r18_network.node[34].core_layer 	interests[34] 	11946
scalar tree_4_3_u05_r18_network.node[34].core_layer 	data[34] 	10134
scalar tree_4_3_u05_r18_network.node[34].content_store 	p_hit[34] 	0.15151515151515
scalar tree_4_3_u05_r18_network.node[34].content_store 	hits[34] 	1810
scalar tree_4_3_u05_r18_network.node[34].content_store 	misses[34] 	10136
scalar tree_4_3_u05_r18_network.node[34].content_store 	decision_yes[34] 	10134
scalar tree_4_3_u05_r18_network.node[34].content_store 	decision_no[34] 	0
scalar tree_4_3_u05_r18_network.node[34].content_store 	decision_ratio[34] 	1
scalar tree_4_3_u05_r18_network.node[35].core_layer 	interests[35] 	11933
scalar tree_4_3_u05_r18_network.node[35].core_layer 	data[35] 	10094
scalar tree_4_3_u05_r18_network.node[35].content_store 	p_hit[35] 	0.15411045001257
scalar tree_4_3_u05_r18_network.node[35].content_store 	hits[35] 	1839
scalar tree_4_3_u05_r18_network.node[35].content_store 	misses[35] 	10094
scalar tree_4_3_u05_r18_network.node[35].content_store 	decision_yes[35] 	10094
scalar tree_4_3_u05_r18_network.node[35].content_store 	decision_no[35] 	0
scalar tree_4_3_u05_r18_network.node[35].content_store 	decision_ratio[35] 	1
scalar tree_4_3_u05_r18_network.node[36].core_layer 	interests[36] 	12121
scalar tree_4_3_u05_r18_network.node[36].core_layer 	data[36] 	10252
scalar tree_4_3_u05_r18_network.node[36].content_store 	p_hit[36] 	0.1541126969722
scalar tree_4_3_u05_r18_network.node[36].content_store 	hits[36] 	1868
scalar tree_4_3_u05_r18_network.node[36].content_store 	misses[36] 	10253
scalar tree_4_3_u05_r18_network.node[36].content_store 	decision_yes[36] 	10252
scalar tree_4_3_u05_r18_network.node[36].content_store 	decision_no[36] 	0
scalar tree_4_3_u05_r18_network.node[36].content_store 	decision_ratio[36] 	1
scalar tree_4_3_u05_r18_network.node[37].core_layer 	interests[37] 	11898
scalar tree_4_3_u05_r18_network.node[37].core_layer 	data[37] 	10002
scalar tree_4_3_u05_r18_network.node[37].content_store 	p_hit[37] 	0.15935451336359
scalar tree_4_3_u05_r18_network.node[37].content_store 	hits[37] 	1896
scalar tree_4_3_u05_r18_network.node[37].content_store 	misses[37] 	10002
scalar tree_4_3_u05_r18_network.node[37].content_store 	decision_yes[37] 	10002
scalar tree_4_3_u05_r18_network.node[37].content_store 	decision_no[37] 	0
scalar tree_4_3_u05_r18_network.node[37].content_store 	decision_ratio[37] 	1
scalar tree_4_3_u05_r18_network.node[38].core_layer 	interests[38] 	11849
scalar tree_4_3_u05_r18_network.node[38].core_layer 	data[38] 	9989
scalar tree_4_3_u05_r18_network.node[38].content_store 	p_hit[38] 	0.15689087686725
scalar tree_4_3_u05_r18_network.node[38].content_store 	hits[38] 	1859
scalar tree_4_3_u05_r18_network.node[38].content_store 	misses[38] 	9990
scalar tree_4_3_u05_r18_network.node[38].content_store 	decision_yes[38] 	9989
scalar tree_4_3_u05_r18_network.node[38].content_store 	decision_no[38] 	0
scalar tree_4_3_u05_r18_network.node[38].content_store 	decision_ratio[38] 	1
scalar tree_4_3_u05_r18_network.node[39].core_layer 	interests[39] 	12080
scalar tree_4_3_u05_r18_network.node[39].core_layer 	data[39] 	10150
scalar tree_4_3_u05_r18_network.node[39].content_store 	p_hit[39] 	0.15976821192053
scalar tree_4_3_u05_r18_network.node[39].content_store 	hits[39] 	1930
scalar tree_4_3_u05_r18_network.node[39].content_store 	misses[39] 	10150
scalar tree_4_3_u05_r18_network.node[39].content_store 	decision_yes[39] 	10150
scalar tree_4_3_u05_r18_network.node[39].content_store 	decision_no[39] 	0
scalar tree_4_3_u05_r18_network.node[39].content_store 	decision_ratio[39] 	1
scalar tree_4_3_u05_r18_network.client[13] 	hdistance[13] 	3.2433675564682
scalar tree_4_3_u05_r18_network.client[13] 	downloads[13] 	12175
scalar tree_4_3_u05_r18_network.client[13] 	avg_time[13] 	0.004912440188
scalar tree_4_3_u05_r18_network.client[14] 	hdistance[14] 	3.2354200988468
scalar tree_4_3_u05_r18_network.client[14] 	downloads[14] 	12140
scalar tree_4_3_u05_r18_network.client[14] 	avg_time[14] 	0.004898288924
scalar tree_4_3_u05_r18_network.client[15] 	hdistance[15] 	3.2435467650017
scalar tree_4_3_u05_r18_network.client[15] 	downloads[15] 	11932
scalar tree_4_3_u05_r18_network.client[15] 	avg_time[15] 	0.004909541802
scalar tree_4_3_u05_r18_network.client[16] 	hdistance[16] 	3.2345055854365
scalar tree_4_3_u05_r18_network.client[16] 	downloads[16] 	12085
scalar tree_4_3_u05_r18_network.client[16] 	avg_time[16] 	0.004901612602
scalar tree_4_3_u05_r18_network.client[17] 	hdistance[17] 	3.2384951293248
scalar tree_4_3_u05_r18_network.client[17] 	downloads[17] 	11908
scalar tree_4_3_u05_r18_network.client[17] 	avg_time[17] 	0.004904934874
scalar tree_4_3_u05_r18_network.client[18] 	hdistance[18] 	3.2526122210148
scalar tree_4_3_u05_r18_network.client[18] 	downloads[18] 	11963
scalar tree_4_3_u05_r18_network.client[18] 	avg_time[18] 	0.004926415436
scalar tree_4_3_u05_r18_network.client[19] 	hdistance[19] 	3.2296925768558
scalar tree_4_3_u05_r18_network.client[19] 	downloads[19] 	12003
scalar tree_4_3_u05_r18_network.client[19] 	avg_time[19] 	0.004890229292
scalar tree_4_3_u05_r18_network.client[20] 	hdistance[20] 	3.2323064113239
scalar tree_4_3_u05_r18_network.client[20] 	downloads[20] 	12010
scalar tree_4_3_u05_r18_network.client[20] 	avg_time[20] 	0.004895246515
scalar tree_4_3_u05_r18_network.client[21] 	hdistance[21] 	3.2227464195451
scalar tree_4_3_u05_r18_network.client[21] 	downloads[21] 	11870
scalar tree_4_3_u05_r18_network.client[21] 	avg_time[21] 	0.004883594775
scalar tree_4_3_u05_r18_network.client[22] 	hdistance[22] 	3.2385647994697
scalar tree_4_3_u05_r18_network.client[22] 	downloads[22] 	12068
scalar tree_4_3_u05_r18_network.client[22] 	avg_time[22] 	0.004903676819
scalar tree_4_3_u05_r18_network.client[23] 	hdistance[23] 	3.2495981047466
scalar tree_4_3_u05_r18_network.client[23] 	downloads[23] 	11819
scalar tree_4_3_u05_r18_network.client[23] 	avg_time[23] 	0.004920340266
scalar tree_4_3_u05_r18_network.client[24] 	hdistance[24] 	3.255032996408
scalar tree_4_3_u05_r18_network.client[24] 	downloads[24] 	11971
scalar tree_4_3_u05_r18_network.client[24] 	avg_time[24] 	0.004928795014
scalar tree_4_3_u05_r18_network.client[25] 	hdistance[25] 	3.256253660169
scalar tree_4_3_u05_r18_network.client[25] 	downloads[25] 	11953
scalar tree_4_3_u05_r18_network.client[25] 	avg_time[25] 	0.004938223457
scalar tree_4_3_u05_r18_network.client[26] 	hdistance[26] 	3.281394963552
scalar tree_4_3_u05_r18_network.client[26] 	downloads[26] 	12072
scalar tree_4_3_u05_r18_network.client[26] 	avg_time[26] 	0.004977500575
scalar tree_4_3_u05_r18_network.client[27] 	hdistance[27] 	3.2420868987289
scalar tree_4_3_u05_r18_network.client[27] 	downloads[27] 	12037
scalar tree_4_3_u05_r18_network.client[27] 	avg_time[27] 	0.004921322934
scalar tree_4_3_u05_r18_network.client[28] 	hdistance[28] 	3.2419851777833
scalar tree_4_3_u05_r18_network.client[28] 	downloads[28] 	12009
scalar tree_4_3_u05_r18_network.client[28] 	avg_time[28] 	0.00491680941
scalar tree_4_3_u05_r18_network.client[29] 	hdistance[29] 	3.2321683010644
scalar tree_4_3_u05_r18_network.client[29] 	downloads[29] 	11931
scalar tree_4_3_u05_r18_network.client[29] 	avg_time[29] 	0.004903405762
scalar tree_4_3_u05_r18_network.client[30] 	hdistance[30] 	3.2573553448839
scalar tree_4_3_u05_r18_network.client[30] 	downloads[30] 	12236
scalar tree_4_3_u05_r18_network.client[30] 	avg_time[30] 	0.00493854903
scalar tree_4_3_u05_r18_network.client[31] 	hdistance[31] 	3.2492012779553
scalar tree_4_3_u05_r18_network.client[31] 	downloads[31] 	11894
scalar tree_4_3_u05_r18_network.client[31] 	avg_time[31] 	0.004920512328
scalar tree_4_3_u05_r18_network.client[32] 	hdistance[32] 	3.2587931321887
scalar tree_4_3_u05_r18_network.client[32] 	downloads[32] 	11998
scalar tree_4_3_u05_r18_network.client[32] 	avg_time[32] 	0.004937085445
scalar tree_4_3_u05_r18_network.client[33] 	hdistance[33] 	3.2405504119596
scalar tree_4_3_u05_r18_network.client[33] 	downloads[33] 	11773
scalar tree_4_3_u05_r18_network.client[33] 	avg_time[33] 	0.004906518994
scalar tree_4_3_u05_r18_network.client[34] 	hdistance[34] 	3.2671634293369
scalar tree_4_3_u05_r18_network.client[34] 	downloads[34] 	11944
scalar tree_4_3_u05_r18_network.client[34] 	avg_time[34] 	0.004947008838
scalar tree_4_3_u05_r18_network.client[35] 	hdistance[35] 	3.2699237408866
scalar tree_4_3_u05_r18_network.client[35] 	downloads[35] 	11933
scalar tree_4_3_u05_r18_network.client[35] 	avg_time[35] 	0.004959034521
scalar tree_4_3_u05_r18_network.client[36] 	hdistance[36] 	3.2660066006601
scalar tree_4_3_u05_r18_network.client[36] 	downloads[36] 	12120
scalar tree_4_3_u05_r18_network.client[36] 	avg_time[36] 	0.004954196978
scalar tree_4_3_u05_r18_network.client[37] 	hdistance[37] 	3.2321398554379
scalar tree_4_3_u05_r18_network.client[37] 	downloads[37] 	11898
scalar tree_4_3_u05_r18_network.client[37] 	avg_time[37] 	0.00489571922
scalar tree_4_3_u05_r18_network.client[38] 	hdistance[38] 	3.2916948008103
scalar tree_4_3_u05_r18_network.client[38] 	downloads[38] 	11848
scalar tree_4_3_u05_r18_network.client[38] 	avg_time[38] 	0.004981589165
scalar tree_4_3_u05_r18_network.client[39] 	hdistance[39] 	3.2837748344371
scalar tree_4_3_u05_r18_network.client[39] 	downloads[39] 	12080
scalar tree_4_3_u05_r18_network.client[39] 	avg_time[39] 	0.004970361204
