version 2
run General-109-20160820-15:36:39-2644
attr a 0.9
attr cd lce
attr configname General
attr cr lru
attr datetime 20160820-15:36:39
attr experiment General
attr fsize 1
attr inifile hw5115/scenario_A/SPR-LCE.ini
attr iterationvars "$name=tree_4_3, $un=05, $rep=10, $cd=lce, $cr=lru, $fsize=1, $a=0.9, $sl=spr, $ttl=1000, $variance=0.05"
attr iterationvars2 "$name=tree_4_3, $un=05, $rep=10, $cd=lce, $cr=lru, $fsize=1, $a=0.9, $sl=spr, $ttl=1000, $variance=0.05, $repetition=0"
attr measurement "$name=tree_4_3, $un=05, $rep=10, $cd=lce, $cr=lru, $fsize=1, $a=0.9, $sl=spr, $ttl=1000, $variance=0.05"
attr name tree_4_3
attr network networks.${name}_u${un}_r${rep}_network
attr processid 2644
attr rep 10
attr repetition 0
attr replication #0
attr resultdir results
attr runnumber 109
attr seedset 10
attr sl spr
attr ttl 1000
attr un 05
attr variance 0.05

scalar . 	a 	0.9
scalar . 	fsize 	1
scalar . 	rep 	10
scalar . 	ttl 	1000
scalar . 	un 	05
scalar . 	variance 	0.05
scalar tree_4_3_u05_r10_network.content_distribution 	repo-0 	0
scalar tree_4_3_u05_r10_network.content_distribution 	client-0 	13
scalar tree_4_3_u05_r10_network.content_distribution 	client-1 	14
scalar tree_4_3_u05_r10_network.content_distribution 	client-2 	15
scalar tree_4_3_u05_r10_network.content_distribution 	client-3 	16
scalar tree_4_3_u05_r10_network.content_distribution 	client-4 	17
scalar tree_4_3_u05_r10_network.content_distribution 	client-5 	18
scalar tree_4_3_u05_r10_network.content_distribution 	client-6 	19
scalar tree_4_3_u05_r10_network.content_distribution 	client-7 	20
scalar tree_4_3_u05_r10_network.content_distribution 	client-8 	21
scalar tree_4_3_u05_r10_network.content_distribution 	client-9 	22
scalar tree_4_3_u05_r10_network.content_distribution 	client-10 	23
scalar tree_4_3_u05_r10_network.content_distribution 	client-11 	24
scalar tree_4_3_u05_r10_network.content_distribution 	client-12 	25
scalar tree_4_3_u05_r10_network.content_distribution 	client-13 	26
scalar tree_4_3_u05_r10_network.content_distribution 	client-14 	27
scalar tree_4_3_u05_r10_network.content_distribution 	client-15 	28
scalar tree_4_3_u05_r10_network.content_distribution 	client-16 	29
scalar tree_4_3_u05_r10_network.content_distribution 	client-17 	30
scalar tree_4_3_u05_r10_network.content_distribution 	client-18 	31
scalar tree_4_3_u05_r10_network.content_distribution 	client-19 	32
scalar tree_4_3_u05_r10_network.content_distribution 	client-20 	33
scalar tree_4_3_u05_r10_network.content_distribution 	client-21 	34
scalar tree_4_3_u05_r10_network.content_distribution 	client-22 	35
scalar tree_4_3_u05_r10_network.content_distribution 	client-23 	36
scalar tree_4_3_u05_r10_network.content_distribution 	client-24 	37
scalar tree_4_3_u05_r10_network.content_distribution 	client-25 	38
scalar tree_4_3_u05_r10_network.content_distribution 	client-26 	39
scalar tree_4_3_u05_r10_network.content_distribution 	repo-0_card 	100000
scalar tree_4_3_u05_r10_network.content_distribution 	repo-0_price 	0
scalar tree_4_3_u05_r10_network.statistics 	stabilization_time 	496.1
scalar tree_4_3_u05_r10_network.statistics 	p_hit 	0.1131367025469
scalar tree_4_3_u05_r10_network.statistics 	interests 	28025.475
scalar tree_4_3_u05_r10_network.statistics 	data 	19939.7
scalar tree_4_3_u05_r10_network.statistics 	hdistance 	3.2539829053792
scalar tree_4_3_u05_r10_network.statistics 	avg_time 	0.004932489718
scalar tree_4_3_u05_r10_network.statistics 	downloads 	323406
scalar tree_4_3_u05_r10_network.statistics 	total_cost 	0
scalar tree_4_3_u05_r10_network.statistics 	total_replicas 	100000
scalar tree_4_3_u05_r10_network.statistics 	inner_hit 	0.21257181375732
scalar tree_4_3_u05_r10_network.node[0].core_layer 	interests[0] 	259506
scalar tree_4_3_u05_r10_network.node[0].core_layer 	repo_load[0] 	254659
scalar tree_4_3_u05_r10_network.node[0].core_layer 	data[0] 	0
scalar tree_4_3_u05_r10_network.node[0].core_layer 	repo_int[0] 	254659
scalar tree_4_3_u05_r10_network.node[0].content_store 	p_hit[0] 	0.018677795503765
scalar tree_4_3_u05_r10_network.node[0].content_store 	hits[0] 	4847
scalar tree_4_3_u05_r10_network.node[0].content_store 	misses[0] 	254659
scalar tree_4_3_u05_r10_network.node[0].content_store 	decision_yes[0] 	254659
scalar tree_4_3_u05_r10_network.node[0].content_store 	decision_no[0] 	0
scalar tree_4_3_u05_r10_network.node[0].content_store 	decision_ratio[0] 	1
scalar tree_4_3_u05_r10_network.node[1].core_layer 	interests[1] 	88456
scalar tree_4_3_u05_r10_network.node[1].core_layer 	data[1] 	86634
scalar tree_4_3_u05_r10_network.node[1].content_store 	p_hit[1] 	0.020529981007507
scalar tree_4_3_u05_r10_network.node[1].content_store 	hits[1] 	1816
scalar tree_4_3_u05_r10_network.node[1].content_store 	misses[1] 	86640
scalar tree_4_3_u05_r10_network.node[1].content_store 	decision_yes[1] 	86634
scalar tree_4_3_u05_r10_network.node[1].content_store 	decision_no[1] 	0
scalar tree_4_3_u05_r10_network.node[1].content_store 	decision_ratio[1] 	1
scalar tree_4_3_u05_r10_network.node[2].core_layer 	interests[2] 	88045
scalar tree_4_3_u05_r10_network.node[2].core_layer 	data[2] 	85984
scalar tree_4_3_u05_r10_network.node[2].content_store 	p_hit[2] 	0.023317621670737
scalar tree_4_3_u05_r10_network.node[2].content_store 	hits[2] 	2053
scalar tree_4_3_u05_r10_network.node[2].content_store 	misses[2] 	85992
scalar tree_4_3_u05_r10_network.node[2].content_store 	decision_yes[2] 	85984
scalar tree_4_3_u05_r10_network.node[2].content_store 	decision_no[2] 	0
scalar tree_4_3_u05_r10_network.node[2].content_store 	decision_ratio[2] 	1
scalar tree_4_3_u05_r10_network.node[3].core_layer 	interests[3] 	88706
scalar tree_4_3_u05_r10_network.node[3].core_layer 	data[3] 	86887
scalar tree_4_3_u05_r10_network.node[3].content_store 	p_hit[3] 	0.020449575000564
scalar tree_4_3_u05_r10_network.node[3].content_store 	hits[3] 	1814
scalar tree_4_3_u05_r10_network.node[3].content_store 	misses[3] 	86892
scalar tree_4_3_u05_r10_network.node[3].content_store 	decision_yes[3] 	86887
scalar tree_4_3_u05_r10_network.node[3].content_store 	decision_no[3] 	0
scalar tree_4_3_u05_r10_network.node[3].content_store 	decision_ratio[3] 	1
scalar tree_4_3_u05_r10_network.node[4].core_layer 	interests[4] 	50472
scalar tree_4_3_u05_r10_network.node[4].core_layer 	data[4] 	48743
scalar tree_4_3_u05_r10_network.node[4].content_store 	p_hit[4] 	0.034177365668093
scalar tree_4_3_u05_r10_network.node[4].content_store 	hits[4] 	1725
scalar tree_4_3_u05_r10_network.node[4].content_store 	misses[4] 	48747
scalar tree_4_3_u05_r10_network.node[4].content_store 	decision_yes[4] 	48743
scalar tree_4_3_u05_r10_network.node[4].content_store 	decision_no[4] 	0
scalar tree_4_3_u05_r10_network.node[4].content_store 	decision_ratio[4] 	1
scalar tree_4_3_u05_r10_network.node[5].core_layer 	interests[5] 	30274
scalar tree_4_3_u05_r10_network.node[5].core_layer 	data[5] 	29443
scalar tree_4_3_u05_r10_network.node[5].content_store 	p_hit[5] 	0.027416264781661
scalar tree_4_3_u05_r10_network.node[5].content_store 	hits[5] 	830
scalar tree_4_3_u05_r10_network.node[5].content_store 	misses[5] 	29444
scalar tree_4_3_u05_r10_network.node[5].content_store 	decision_yes[5] 	29443
scalar tree_4_3_u05_r10_network.node[5].content_store 	decision_no[5] 	0
scalar tree_4_3_u05_r10_network.node[5].content_store 	decision_ratio[5] 	1
scalar tree_4_3_u05_r10_network.node[6].core_layer 	interests[6] 	10297
scalar tree_4_3_u05_r10_network.node[6].core_layer 	data[6] 	10271
scalar tree_4_3_u05_r10_network.node[6].content_store 	p_hit[6] 	0.0025250072836749
scalar tree_4_3_u05_r10_network.node[6].content_store 	hits[6] 	26
scalar tree_4_3_u05_r10_network.node[6].content_store 	misses[6] 	10271
scalar tree_4_3_u05_r10_network.node[6].content_store 	decision_yes[6] 	10271
scalar tree_4_3_u05_r10_network.node[6].content_store 	decision_no[6] 	0
scalar tree_4_3_u05_r10_network.node[6].content_store 	decision_ratio[6] 	1
scalar tree_4_3_u05_r10_network.node[7].core_layer 	interests[7] 	30205
scalar tree_4_3_u05_r10_network.node[7].core_layer 	data[7] 	29416
scalar tree_4_3_u05_r10_network.node[7].content_store 	p_hit[7] 	0.026088395960934
scalar tree_4_3_u05_r10_network.node[7].content_store 	hits[7] 	788
scalar tree_4_3_u05_r10_network.node[7].content_store 	misses[7] 	29417
scalar tree_4_3_u05_r10_network.node[7].content_store 	decision_yes[7] 	29416
scalar tree_4_3_u05_r10_network.node[7].content_store 	decision_no[7] 	0
scalar tree_4_3_u05_r10_network.node[7].content_store 	decision_ratio[7] 	1
scalar tree_4_3_u05_r10_network.node[8].core_layer 	interests[8] 	30091
scalar tree_4_3_u05_r10_network.node[8].core_layer 	data[8] 	29242
scalar tree_4_3_u05_r10_network.node[8].content_store 	p_hit[8] 	0.028147951214649
scalar tree_4_3_u05_r10_network.node[8].content_store 	hits[8] 	847
scalar tree_4_3_u05_r10_network.node[8].content_store 	misses[8] 	29244
scalar tree_4_3_u05_r10_network.node[8].content_store 	decision_yes[8] 	29242
scalar tree_4_3_u05_r10_network.node[8].content_store 	decision_no[8] 	0
scalar tree_4_3_u05_r10_network.node[8].content_store 	decision_ratio[8] 	1
scalar tree_4_3_u05_r10_network.node[9].core_layer 	interests[9] 	30254
scalar tree_4_3_u05_r10_network.node[9].core_layer 	data[9] 	29387
scalar tree_4_3_u05_r10_network.node[9].content_store 	p_hit[9] 	0.028591260659747
scalar tree_4_3_u05_r10_network.node[9].content_store 	hits[9] 	865
scalar tree_4_3_u05_r10_network.node[9].content_store 	misses[9] 	29389
scalar tree_4_3_u05_r10_network.node[9].content_store 	decision_yes[9] 	29387
scalar tree_4_3_u05_r10_network.node[9].content_store 	decision_no[9] 	0
scalar tree_4_3_u05_r10_network.node[9].content_store 	decision_ratio[9] 	1
scalar tree_4_3_u05_r10_network.node[10].core_layer 	interests[10] 	50762
scalar tree_4_3_u05_r10_network.node[10].core_layer 	data[10] 	49103
scalar tree_4_3_u05_r10_network.node[10].content_store 	p_hit[10] 	0.032484929671802
scalar tree_4_3_u05_r10_network.node[10].content_store 	hits[10] 	1649
scalar tree_4_3_u05_r10_network.node[10].content_store 	misses[10] 	49113
scalar tree_4_3_u05_r10_network.node[10].content_store 	decision_yes[10] 	49103
scalar tree_4_3_u05_r10_network.node[10].content_store 	decision_no[10] 	0
scalar tree_4_3_u05_r10_network.node[10].content_store 	decision_ratio[10] 	1
scalar tree_4_3_u05_r10_network.node[11].core_layer 	interests[11] 	20168
scalar tree_4_3_u05_r10_network.node[11].core_layer 	data[11] 	19728
scalar tree_4_3_u05_r10_network.node[11].content_store 	p_hit[11] 	0.02176715589052
scalar tree_4_3_u05_r10_network.node[11].content_store 	hits[11] 	439
scalar tree_4_3_u05_r10_network.node[11].content_store 	misses[11] 	19729
scalar tree_4_3_u05_r10_network.node[11].content_store 	decision_yes[11] 	19728
scalar tree_4_3_u05_r10_network.node[11].content_store 	decision_no[11] 	0
scalar tree_4_3_u05_r10_network.node[11].content_store 	decision_ratio[11] 	1
scalar tree_4_3_u05_r10_network.node[12].core_layer 	interests[12] 	20353
scalar tree_4_3_u05_r10_network.node[12].core_layer 	data[12] 	19874
scalar tree_4_3_u05_r10_network.node[12].content_store 	p_hit[12] 	0.02343634844986
scalar tree_4_3_u05_r10_network.node[12].content_store 	hits[12] 	477
scalar tree_4_3_u05_r10_network.node[12].content_store 	misses[12] 	19876
scalar tree_4_3_u05_r10_network.node[12].content_store 	decision_yes[12] 	19874
scalar tree_4_3_u05_r10_network.node[12].content_store 	decision_no[12] 	0
scalar tree_4_3_u05_r10_network.node[12].content_store 	decision_ratio[12] 	1
scalar tree_4_3_u05_r10_network.node[13].core_layer 	interests[13] 	12151
scalar tree_4_3_u05_r10_network.node[13].core_layer 	data[13] 	10155
scalar tree_4_3_u05_r10_network.node[13].content_store 	p_hit[13] 	0.16401942226977
scalar tree_4_3_u05_r10_network.node[13].content_store 	hits[13] 	1993
scalar tree_4_3_u05_r10_network.node[13].content_store 	misses[13] 	10158
scalar tree_4_3_u05_r10_network.node[13].content_store 	decision_yes[13] 	10155
scalar tree_4_3_u05_r10_network.node[13].content_store 	decision_no[13] 	0
scalar tree_4_3_u05_r10_network.node[13].content_store 	decision_ratio[13] 	1
scalar tree_4_3_u05_r10_network.node[14].core_layer 	interests[14] 	11974
scalar tree_4_3_u05_r10_network.node[14].core_layer 	data[14] 	10156
scalar tree_4_3_u05_r10_network.node[14].content_store 	p_hit[14] 	0.15182896275263
scalar tree_4_3_u05_r10_network.node[14].content_store 	hits[14] 	1818
scalar tree_4_3_u05_r10_network.node[14].content_store 	misses[14] 	10156
scalar tree_4_3_u05_r10_network.node[14].content_store 	decision_yes[14] 	10156
scalar tree_4_3_u05_r10_network.node[14].content_store 	decision_no[14] 	0
scalar tree_4_3_u05_r10_network.node[14].content_store 	decision_ratio[14] 	1
scalar tree_4_3_u05_r10_network.node[15].core_layer 	interests[15] 	11971
scalar tree_4_3_u05_r10_network.node[15].core_layer 	data[15] 	10089
scalar tree_4_3_u05_r10_network.node[15].content_store 	p_hit[15] 	0.15704619497118
scalar tree_4_3_u05_r10_network.node[15].content_store 	hits[15] 	1880
scalar tree_4_3_u05_r10_network.node[15].content_store 	misses[15] 	10091
scalar tree_4_3_u05_r10_network.node[15].content_store 	decision_yes[15] 	10089
scalar tree_4_3_u05_r10_network.node[15].content_store 	decision_no[15] 	0
scalar tree_4_3_u05_r10_network.node[15].content_store 	decision_ratio[15] 	1
scalar tree_4_3_u05_r10_network.node[16].core_layer 	interests[16] 	11829
scalar tree_4_3_u05_r10_network.node[16].core_layer 	data[16] 	10002
scalar tree_4_3_u05_r10_network.node[16].content_store 	p_hit[16] 	0.15436638769127
scalar tree_4_3_u05_r10_network.node[16].content_store 	hits[16] 	1826
scalar tree_4_3_u05_r10_network.node[16].content_store 	misses[16] 	10003
scalar tree_4_3_u05_r10_network.node[16].content_store 	decision_yes[16] 	10002
scalar tree_4_3_u05_r10_network.node[16].content_store 	decision_no[16] 	0
scalar tree_4_3_u05_r10_network.node[16].content_store 	decision_ratio[16] 	1
scalar tree_4_3_u05_r10_network.node[17].core_layer 	interests[17] 	12026
scalar tree_4_3_u05_r10_network.node[17].core_layer 	data[17] 	10138
scalar tree_4_3_u05_r10_network.node[17].content_store 	p_hit[17] 	0.15699318144021
scalar tree_4_3_u05_r10_network.node[17].content_store 	hits[17] 	1888
scalar tree_4_3_u05_r10_network.node[17].content_store 	misses[17] 	10138
scalar tree_4_3_u05_r10_network.node[17].content_store 	decision_yes[17] 	10138
scalar tree_4_3_u05_r10_network.node[17].content_store 	decision_no[17] 	0
scalar tree_4_3_u05_r10_network.node[17].content_store 	decision_ratio[17] 	1
scalar tree_4_3_u05_r10_network.node[18].core_layer 	interests[18] 	12040
scalar tree_4_3_u05_r10_network.node[18].core_layer 	data[18] 	10111
scalar tree_4_3_u05_r10_network.node[18].content_store 	p_hit[18] 	0.16013289036545
scalar tree_4_3_u05_r10_network.node[18].content_store 	hits[18] 	1928
scalar tree_4_3_u05_r10_network.node[18].content_store 	misses[18] 	10112
scalar tree_4_3_u05_r10_network.node[18].content_store 	decision_yes[18] 	10111
scalar tree_4_3_u05_r10_network.node[18].content_store 	decision_no[18] 	0
scalar tree_4_3_u05_r10_network.node[18].content_store 	decision_ratio[18] 	1
scalar tree_4_3_u05_r10_network.node[19].core_layer 	interests[19] 	11898
scalar tree_4_3_u05_r10_network.node[19].core_layer 	data[19] 	10071
scalar tree_4_3_u05_r10_network.node[19].content_store 	p_hit[19] 	0.15347117162548
scalar tree_4_3_u05_r10_network.node[19].content_store 	hits[19] 	1826
scalar tree_4_3_u05_r10_network.node[19].content_store 	misses[19] 	10072
scalar tree_4_3_u05_r10_network.node[19].content_store 	decision_yes[19] 	10071
scalar tree_4_3_u05_r10_network.node[19].content_store 	decision_no[19] 	0
scalar tree_4_3_u05_r10_network.node[19].content_store 	decision_ratio[19] 	1
scalar tree_4_3_u05_r10_network.node[20].core_layer 	interests[20] 	11830
scalar tree_4_3_u05_r10_network.node[20].core_layer 	data[20] 	10025
scalar tree_4_3_u05_r10_network.node[20].content_store 	p_hit[20] 	0.15249366018597
scalar tree_4_3_u05_r10_network.node[20].content_store 	hits[20] 	1804
scalar tree_4_3_u05_r10_network.node[20].content_store 	misses[20] 	10026
scalar tree_4_3_u05_r10_network.node[20].content_store 	decision_yes[20] 	10025
scalar tree_4_3_u05_r10_network.node[20].content_store 	decision_no[20] 	0
scalar tree_4_3_u05_r10_network.node[20].content_store 	decision_ratio[20] 	1
scalar tree_4_3_u05_r10_network.node[21].core_layer 	interests[21] 	12212
scalar tree_4_3_u05_r10_network.node[21].core_layer 	data[21] 	10297
scalar tree_4_3_u05_r10_network.node[21].content_store 	p_hit[21] 	0.15664919751065
scalar tree_4_3_u05_r10_network.node[21].content_store 	hits[21] 	1913
scalar tree_4_3_u05_r10_network.node[21].content_store 	misses[21] 	10299
scalar tree_4_3_u05_r10_network.node[21].content_store 	decision_yes[21] 	10297
scalar tree_4_3_u05_r10_network.node[21].content_store 	decision_no[21] 	0
scalar tree_4_3_u05_r10_network.node[21].content_store 	decision_ratio[21] 	1
scalar tree_4_3_u05_r10_network.node[22].core_layer 	interests[22] 	11934
scalar tree_4_3_u05_r10_network.node[22].core_layer 	data[22] 	10027
scalar tree_4_3_u05_r10_network.node[22].content_store 	p_hit[22] 	0.15979554214848
scalar tree_4_3_u05_r10_network.node[22].content_store 	hits[22] 	1907
scalar tree_4_3_u05_r10_network.node[22].content_store 	misses[22] 	10027
scalar tree_4_3_u05_r10_network.node[22].content_store 	decision_yes[22] 	10027
scalar tree_4_3_u05_r10_network.node[22].content_store 	decision_no[22] 	0
scalar tree_4_3_u05_r10_network.node[22].content_store 	decision_ratio[22] 	1
scalar tree_4_3_u05_r10_network.node[23].core_layer 	interests[23] 	11790
scalar tree_4_3_u05_r10_network.node[23].core_layer 	data[23] 	9967
scalar tree_4_3_u05_r10_network.node[23].content_store 	p_hit[23] 	0.15453774385072
scalar tree_4_3_u05_r10_network.node[23].content_store 	hits[23] 	1822
scalar tree_4_3_u05_r10_network.node[23].content_store 	misses[23] 	9968
scalar tree_4_3_u05_r10_network.node[23].content_store 	decision_yes[23] 	9967
scalar tree_4_3_u05_r10_network.node[23].content_store 	decision_no[23] 	0
scalar tree_4_3_u05_r10_network.node[23].content_store 	decision_ratio[23] 	1
scalar tree_4_3_u05_r10_network.node[24].core_layer 	interests[24] 	12035
scalar tree_4_3_u05_r10_network.node[24].core_layer 	data[24] 	10211
scalar tree_4_3_u05_r10_network.node[24].content_store 	p_hit[24] 	0.15147486497715
scalar tree_4_3_u05_r10_network.node[24].content_store 	hits[24] 	1823
scalar tree_4_3_u05_r10_network.node[24].content_store 	misses[24] 	10212
scalar tree_4_3_u05_r10_network.node[24].content_store 	decision_yes[24] 	10211
scalar tree_4_3_u05_r10_network.node[24].content_store 	decision_no[24] 	0
scalar tree_4_3_u05_r10_network.node[24].content_store 	decision_ratio[24] 	1
scalar tree_4_3_u05_r10_network.node[25].core_layer 	interests[25] 	11840
scalar tree_4_3_u05_r10_network.node[25].core_layer 	data[25] 	9984
scalar tree_4_3_u05_r10_network.node[25].content_store 	p_hit[25] 	0.1566722972973
scalar tree_4_3_u05_r10_network.node[25].content_store 	hits[25] 	1855
scalar tree_4_3_u05_r10_network.node[25].content_store 	misses[25] 	9985
scalar tree_4_3_u05_r10_network.node[25].content_store 	decision_yes[25] 	9984
scalar tree_4_3_u05_r10_network.node[25].content_store 	decision_no[25] 	0
scalar tree_4_3_u05_r10_network.node[25].content_store 	decision_ratio[25] 	1
scalar tree_4_3_u05_r10_network.node[26].core_layer 	interests[26] 	11878
scalar tree_4_3_u05_r10_network.node[26].core_layer 	data[26] 	9978
scalar tree_4_3_u05_r10_network.node[26].content_store 	p_hit[26] 	0.15987539989897
scalar tree_4_3_u05_r10_network.node[26].content_store 	hits[26] 	1899
scalar tree_4_3_u05_r10_network.node[26].content_store 	misses[26] 	9979
scalar tree_4_3_u05_r10_network.node[26].content_store 	decision_yes[26] 	9978
scalar tree_4_3_u05_r10_network.node[26].content_store 	decision_no[26] 	0
scalar tree_4_3_u05_r10_network.node[26].content_store 	decision_ratio[26] 	1
scalar tree_4_3_u05_r10_network.node[27].core_layer 	interests[27] 	11998
scalar tree_4_3_u05_r10_network.node[27].core_layer 	data[27] 	10129
scalar tree_4_3_u05_r10_network.node[27].content_store 	p_hit[27] 	0.15577596266044
scalar tree_4_3_u05_r10_network.node[27].content_store 	hits[27] 	1869
scalar tree_4_3_u05_r10_network.node[27].content_store 	misses[27] 	10129
scalar tree_4_3_u05_r10_network.node[27].content_store 	decision_yes[27] 	10129
scalar tree_4_3_u05_r10_network.node[27].content_store 	decision_no[27] 	0
scalar tree_4_3_u05_r10_network.node[27].content_store 	decision_ratio[27] 	1
scalar tree_4_3_u05_r10_network.node[28].core_layer 	interests[28] 	12068
scalar tree_4_3_u05_r10_network.node[28].core_layer 	data[28] 	10168
scalar tree_4_3_u05_r10_network.node[28].content_store 	p_hit[28] 	0.15735830294995
scalar tree_4_3_u05_r10_network.node[28].content_store 	hits[28] 	1899
scalar tree_4_3_u05_r10_network.node[28].content_store 	misses[28] 	10169
scalar tree_4_3_u05_r10_network.node[28].content_store 	decision_yes[28] 	10168
scalar tree_4_3_u05_r10_network.node[28].content_store 	decision_no[28] 	0
scalar tree_4_3_u05_r10_network.node[28].content_store 	decision_ratio[28] 	1
scalar tree_4_3_u05_r10_network.node[29].core_layer 	interests[29] 	11950
scalar tree_4_3_u05_r10_network.node[29].core_layer 	data[29] 	10035
scalar tree_4_3_u05_r10_network.node[29].content_store 	p_hit[29] 	0.16008368200837
scalar tree_4_3_u05_r10_network.node[29].content_store 	hits[29] 	1913
scalar tree_4_3_u05_r10_network.node[29].content_store 	misses[29] 	10037
scalar tree_4_3_u05_r10_network.node[29].content_store 	decision_yes[29] 	10035
scalar tree_4_3_u05_r10_network.node[29].content_store 	decision_no[29] 	0
scalar tree_4_3_u05_r10_network.node[29].content_store 	decision_ratio[29] 	1
scalar tree_4_3_u05_r10_network.node[30].core_layer 	interests[30] 	12005
scalar tree_4_3_u05_r10_network.node[30].core_layer 	data[30] 	10051
scalar tree_4_3_u05_r10_network.node[30].content_store 	p_hit[30] 	0.16268221574344
scalar tree_4_3_u05_r10_network.node[30].content_store 	hits[30] 	1953
scalar tree_4_3_u05_r10_network.node[30].content_store 	misses[30] 	10052
scalar tree_4_3_u05_r10_network.node[30].content_store 	decision_yes[30] 	10051
scalar tree_4_3_u05_r10_network.node[30].content_store 	decision_no[30] 	0
scalar tree_4_3_u05_r10_network.node[30].content_store 	decision_ratio[30] 	1
scalar tree_4_3_u05_r10_network.node[31].core_layer 	interests[31] 	11998
scalar tree_4_3_u05_r10_network.node[31].core_layer 	data[31] 	10132
scalar tree_4_3_u05_r10_network.node[31].content_store 	p_hit[31] 	0.15552592098683
scalar tree_4_3_u05_r10_network.node[31].content_store 	hits[31] 	1866
scalar tree_4_3_u05_r10_network.node[31].content_store 	misses[31] 	10132
scalar tree_4_3_u05_r10_network.node[31].content_store 	decision_yes[31] 	10132
scalar tree_4_3_u05_r10_network.node[31].content_store 	decision_no[31] 	0
scalar tree_4_3_u05_r10_network.node[31].content_store 	decision_ratio[31] 	1
scalar tree_4_3_u05_r10_network.node[32].core_layer 	interests[32] 	11847
scalar tree_4_3_u05_r10_network.node[32].core_layer 	data[32] 	10071
scalar tree_4_3_u05_r10_network.node[32].content_store 	p_hit[32] 	0.14991136996708
scalar tree_4_3_u05_r10_network.node[32].content_store 	hits[32] 	1776
scalar tree_4_3_u05_r10_network.node[32].content_store 	misses[32] 	10071
scalar tree_4_3_u05_r10_network.node[32].content_store 	decision_yes[32] 	10071
scalar tree_4_3_u05_r10_network.node[32].content_store 	decision_no[32] 	0
scalar tree_4_3_u05_r10_network.node[32].content_store 	decision_ratio[32] 	1
scalar tree_4_3_u05_r10_network.node[33].core_layer 	interests[33] 	12170
scalar tree_4_3_u05_r10_network.node[33].core_layer 	data[33] 	10274
scalar tree_4_3_u05_r10_network.node[33].content_store 	p_hit[33] 	0.15579293344289
scalar tree_4_3_u05_r10_network.node[33].content_store 	hits[33] 	1896
scalar tree_4_3_u05_r10_network.node[33].content_store 	misses[33] 	10274
scalar tree_4_3_u05_r10_network.node[33].content_store 	decision_yes[33] 	10274
scalar tree_4_3_u05_r10_network.node[33].content_store 	decision_no[33] 	0
scalar tree_4_3_u05_r10_network.node[33].content_store 	decision_ratio[33] 	1
scalar tree_4_3_u05_r10_network.node[34].core_layer 	interests[34] 	11910
scalar tree_4_3_u05_r10_network.node[34].core_layer 	data[34] 	10105
scalar tree_4_3_u05_r10_network.node[34].content_store 	p_hit[34] 	0.15146935348447
scalar tree_4_3_u05_r10_network.node[34].content_store 	hits[34] 	1804
scalar tree_4_3_u05_r10_network.node[34].content_store 	misses[34] 	10106
scalar tree_4_3_u05_r10_network.node[34].content_store 	decision_yes[34] 	10105
scalar tree_4_3_u05_r10_network.node[34].content_store 	decision_no[34] 	0
scalar tree_4_3_u05_r10_network.node[34].content_store 	decision_ratio[34] 	1
scalar tree_4_3_u05_r10_network.node[35].core_layer 	interests[35] 	11922
scalar tree_4_3_u05_r10_network.node[35].core_layer 	data[35] 	10049
scalar tree_4_3_u05_r10_network.node[35].content_store 	p_hit[35] 	0.15710451266566
scalar tree_4_3_u05_r10_network.node[35].content_store 	hits[35] 	1873
scalar tree_4_3_u05_r10_network.node[35].content_store 	misses[35] 	10049
scalar tree_4_3_u05_r10_network.node[35].content_store 	decision_yes[35] 	10049
scalar tree_4_3_u05_r10_network.node[35].content_store 	decision_no[35] 	0
scalar tree_4_3_u05_r10_network.node[35].content_store 	decision_ratio[35] 	1
scalar tree_4_3_u05_r10_network.node[36].core_layer 	interests[36] 	11927
scalar tree_4_3_u05_r10_network.node[36].core_layer 	data[36] 	10119
scalar tree_4_3_u05_r10_network.node[36].content_store 	p_hit[36] 	0.15158883206171
scalar tree_4_3_u05_r10_network.node[36].content_store 	hits[36] 	1808
scalar tree_4_3_u05_r10_network.node[36].content_store 	misses[36] 	10119
scalar tree_4_3_u05_r10_network.node[36].content_store 	decision_yes[36] 	10119
scalar tree_4_3_u05_r10_network.node[36].content_store 	decision_no[36] 	0
scalar tree_4_3_u05_r10_network.node[36].content_store 	decision_ratio[36] 	1
scalar tree_4_3_u05_r10_network.node[37].core_layer 	interests[37] 	12156
scalar tree_4_3_u05_r10_network.node[37].core_layer 	data[37] 	10179
scalar tree_4_3_u05_r10_network.node[37].content_store 	p_hit[37] 	0.16255347153669
scalar tree_4_3_u05_r10_network.node[37].content_store 	hits[37] 	1976
scalar tree_4_3_u05_r10_network.node[37].content_store 	misses[37] 	10180
scalar tree_4_3_u05_r10_network.node[37].content_store 	decision_yes[37] 	10179
scalar tree_4_3_u05_r10_network.node[37].content_store 	decision_no[37] 	0
scalar tree_4_3_u05_r10_network.node[37].content_store 	decision_ratio[37] 	1
scalar tree_4_3_u05_r10_network.node[38].core_layer 	interests[38] 	12016
scalar tree_4_3_u05_r10_network.node[38].core_layer 	data[38] 	10217
scalar tree_4_3_u05_r10_network.node[38].content_store 	p_hit[38] 	0.14963382157124
scalar tree_4_3_u05_r10_network.node[38].content_store 	hits[38] 	1798
scalar tree_4_3_u05_r10_network.node[38].content_store 	misses[38] 	10218
scalar tree_4_3_u05_r10_network.node[38].content_store 	decision_yes[38] 	10217
scalar tree_4_3_u05_r10_network.node[38].content_store 	decision_no[38] 	0
scalar tree_4_3_u05_r10_network.node[38].content_store 	decision_ratio[38] 	1
scalar tree_4_3_u05_r10_network.node[39].core_layer 	interests[39] 	12055
scalar tree_4_3_u05_r10_network.node[39].core_layer 	data[39] 	10136
scalar tree_4_3_u05_r10_network.node[39].content_store 	p_hit[39] 	0.15902115304853
scalar tree_4_3_u05_r10_network.node[39].content_store 	hits[39] 	1917
scalar tree_4_3_u05_r10_network.node[39].content_store 	misses[39] 	10138
scalar tree_4_3_u05_r10_network.node[39].content_store 	decision_yes[39] 	10136
scalar tree_4_3_u05_r10_network.node[39].content_store 	decision_no[39] 	0
scalar tree_4_3_u05_r10_network.node[39].content_store 	decision_ratio[39] 	1
scalar tree_4_3_u05_r10_network.client[13] 	hdistance[13] 	3.2145209087916
scalar tree_4_3_u05_r10_network.client[13] 	downloads[13] 	12148
scalar tree_4_3_u05_r10_network.client[13] 	avg_time[13] 	0.004871301139
scalar tree_4_3_u05_r10_network.client[14] 	hdistance[14] 	3.2700851845666
scalar tree_4_3_u05_r10_network.client[14] 	downloads[14] 	11974
scalar tree_4_3_u05_r10_network.client[14] 	avg_time[14] 	0.004953978547
scalar tree_4_3_u05_r10_network.client[15] 	hdistance[15] 	3.2423761383574
scalar tree_4_3_u05_r10_network.client[15] 	downloads[15] 	11969
scalar tree_4_3_u05_r10_network.client[15] 	avg_time[15] 	0.004914808581
scalar tree_4_3_u05_r10_network.client[16] 	hdistance[16] 	3.2573554277984
scalar tree_4_3_u05_r10_network.client[16] 	downloads[16] 	11828
scalar tree_4_3_u05_r10_network.client[16] 	avg_time[16] 	0.004932772326
scalar tree_4_3_u05_r10_network.client[17] 	hdistance[17] 	3.2529519374688
scalar tree_4_3_u05_r10_network.client[17] 	downloads[17] 	12026
scalar tree_4_3_u05_r10_network.client[17] 	avg_time[17] 	0.004930838096
scalar tree_4_3_u05_r10_network.client[18] 	hdistance[18] 	3.2354846748069
scalar tree_4_3_u05_r10_network.client[18] 	downloads[18] 	12039
scalar tree_4_3_u05_r10_network.client[18] 	avg_time[18] 	0.004905637842
scalar tree_4_3_u05_r10_network.client[19] 	hdistance[19] 	3.2557787677566
scalar tree_4_3_u05_r10_network.client[19] 	downloads[19] 	11897
scalar tree_4_3_u05_r10_network.client[19] 	avg_time[19] 	0.004934066674
scalar tree_4_3_u05_r10_network.client[20] 	hdistance[20] 	3.2642657874715
scalar tree_4_3_u05_r10_network.client[20] 	downloads[20] 	11829
scalar tree_4_3_u05_r10_network.client[20] 	avg_time[20] 	0.004948725667
scalar tree_4_3_u05_r10_network.client[21] 	hdistance[21] 	3.2948402948403
scalar tree_4_3_u05_r10_network.client[21] 	downloads[21] 	12210
scalar tree_4_3_u05_r10_network.client[21] 	avg_time[21] 	0.004995871517
scalar tree_4_3_u05_r10_network.client[22] 	hdistance[22] 	3.2394000335177
scalar tree_4_3_u05_r10_network.client[22] 	downloads[22] 	11934
scalar tree_4_3_u05_r10_network.client[22] 	avg_time[22] 	0.004909499298
scalar tree_4_3_u05_r10_network.client[23] 	hdistance[23] 	3.2680464840105
scalar tree_4_3_u05_r10_network.client[23] 	downloads[23] 	11789
scalar tree_4_3_u05_r10_network.client[23] 	avg_time[23] 	0.004953372702
scalar tree_4_3_u05_r10_network.client[24] 	hdistance[24] 	3.2758849925212
scalar tree_4_3_u05_r10_network.client[24] 	downloads[24] 	12034
scalar tree_4_3_u05_r10_network.client[24] 	avg_time[24] 	0.004968124252
scalar tree_4_3_u05_r10_network.client[25] 	hdistance[25] 	3.2410676577414
scalar tree_4_3_u05_r10_network.client[25] 	downloads[25] 	11839
scalar tree_4_3_u05_r10_network.client[25] 	avg_time[25] 	0.004919071268
scalar tree_4_3_u05_r10_network.client[26] 	hdistance[26] 	3.2384440515282
scalar tree_4_3_u05_r10_network.client[26] 	downloads[26] 	11877
scalar tree_4_3_u05_r10_network.client[26] 	avg_time[26] 	0.004910204508
scalar tree_4_3_u05_r10_network.client[27] 	hdistance[27] 	3.250625104184
scalar tree_4_3_u05_r10_network.client[27] 	downloads[27] 	11998
scalar tree_4_3_u05_r10_network.client[27] 	avg_time[27] 	0.004931366624
scalar tree_4_3_u05_r10_network.client[28] 	hdistance[28] 	3.2462915389078
scalar tree_4_3_u05_r10_network.client[28] 	downloads[28] 	12067
scalar tree_4_3_u05_r10_network.client[28] 	avg_time[28] 	0.004921115287
scalar tree_4_3_u05_r10_network.client[29] 	hdistance[29] 	3.2370271175092
scalar tree_4_3_u05_r10_network.client[29] 	downloads[29] 	11948
scalar tree_4_3_u05_r10_network.client[29] 	avg_time[29] 	0.00490900782
scalar tree_4_3_u05_r10_network.client[30] 	hdistance[30] 	3.221676107964
scalar tree_4_3_u05_r10_network.client[30] 	downloads[30] 	12004
scalar tree_4_3_u05_r10_network.client[30] 	avg_time[30] 	0.004884617268
scalar tree_4_3_u05_r10_network.client[31] 	hdistance[31] 	3.2700450075012
scalar tree_4_3_u05_r10_network.client[31] 	downloads[31] 	11998
scalar tree_4_3_u05_r10_network.client[31] 	avg_time[31] 	0.00495047464
scalar tree_4_3_u05_r10_network.client[32] 	hdistance[32] 	3.2794800371402
scalar tree_4_3_u05_r10_network.client[32] 	downloads[32] 	11847
scalar tree_4_3_u05_r10_network.client[32] 	avg_time[32] 	0.004966030098
scalar tree_4_3_u05_r10_network.client[33] 	hdistance[33] 	3.2528348397699
scalar tree_4_3_u05_r10_network.client[33] 	downloads[33] 	12170
scalar tree_4_3_u05_r10_network.client[33] 	avg_time[33] 	0.004927162175
scalar tree_4_3_u05_r10_network.client[34] 	hdistance[34] 	3.2591317490973
scalar tree_4_3_u05_r10_network.client[34] 	downloads[34] 	11909
scalar tree_4_3_u05_r10_network.client[34] 	avg_time[34] 	0.00493885337
scalar tree_4_3_u05_r10_network.client[35] 	hdistance[35] 	3.2585975507465
scalar tree_4_3_u05_r10_network.client[35] 	downloads[35] 	11922
scalar tree_4_3_u05_r10_network.client[35] 	avg_time[35] 	0.004943295133
scalar tree_4_3_u05_r10_network.client[36] 	hdistance[36] 	3.2778569631928
scalar tree_4_3_u05_r10_network.client[36] 	downloads[36] 	11927
scalar tree_4_3_u05_r10_network.client[36] 	avg_time[36] 	0.004968634737
scalar tree_4_3_u05_r10_network.client[37] 	hdistance[37] 	3.2330728095434
scalar tree_4_3_u05_r10_network.client[37] 	downloads[37] 	12155
scalar tree_4_3_u05_r10_network.client[37] 	avg_time[37] 	0.00489556534
scalar tree_4_3_u05_r10_network.client[38] 	hdistance[38] 	3.2723262588431
scalar tree_4_3_u05_r10_network.client[38] 	downloads[38] 	12015
scalar tree_4_3_u05_r10_network.client[38] 	avg_time[38] 	0.004967428824
scalar tree_4_3_u05_r10_network.client[39] 	hdistance[39] 	3.2480710196632
scalar tree_4_3_u05_r10_network.client[39] 	downloads[39] 	12053
scalar tree_4_3_u05_r10_network.client[39] 	avg_time[39] 	0.004925398675
