version 2
run General-101-20160820-15:27:56-2644
attr a 0.9
attr cd lce
attr configname General
attr cr lru
attr datetime 20160820-15:27:56
attr experiment General
attr fsize 1
attr inifile hw5115/scenario_A/SPR-LCE.ini
attr iterationvars "$name=tree_4_3, $un=05, $rep=2, $cd=lce, $cr=lru, $fsize=1, $a=0.9, $sl=spr, $ttl=1000, $variance=0.05"
attr iterationvars2 "$name=tree_4_3, $un=05, $rep=2, $cd=lce, $cr=lru, $fsize=1, $a=0.9, $sl=spr, $ttl=1000, $variance=0.05, $repetition=0"
attr measurement "$name=tree_4_3, $un=05, $rep=2, $cd=lce, $cr=lru, $fsize=1, $a=0.9, $sl=spr, $ttl=1000, $variance=0.05"
attr name tree_4_3
attr network networks.${name}_u${un}_r${rep}_network
attr processid 2644
attr rep 2
attr repetition 0
attr replication #0
attr resultdir results
attr runnumber 101
attr seedset 2
attr sl spr
attr ttl 1000
attr un 05
attr variance 0.05

scalar . 	a 	0.9
scalar . 	fsize 	1
scalar . 	rep 	2
scalar . 	ttl 	1000
scalar . 	un 	05
scalar . 	variance 	0.05
scalar tree_4_3_u05_r2_network.content_distribution 	repo-0 	0
scalar tree_4_3_u05_r2_network.content_distribution 	client-0 	13
scalar tree_4_3_u05_r2_network.content_distribution 	client-1 	14
scalar tree_4_3_u05_r2_network.content_distribution 	client-2 	15
scalar tree_4_3_u05_r2_network.content_distribution 	client-3 	16
scalar tree_4_3_u05_r2_network.content_distribution 	client-4 	17
scalar tree_4_3_u05_r2_network.content_distribution 	client-5 	18
scalar tree_4_3_u05_r2_network.content_distribution 	client-6 	19
scalar tree_4_3_u05_r2_network.content_distribution 	client-7 	20
scalar tree_4_3_u05_r2_network.content_distribution 	client-8 	21
scalar tree_4_3_u05_r2_network.content_distribution 	client-9 	22
scalar tree_4_3_u05_r2_network.content_distribution 	client-10 	23
scalar tree_4_3_u05_r2_network.content_distribution 	client-11 	24
scalar tree_4_3_u05_r2_network.content_distribution 	client-12 	25
scalar tree_4_3_u05_r2_network.content_distribution 	client-13 	26
scalar tree_4_3_u05_r2_network.content_distribution 	client-14 	27
scalar tree_4_3_u05_r2_network.content_distribution 	client-15 	28
scalar tree_4_3_u05_r2_network.content_distribution 	client-16 	29
scalar tree_4_3_u05_r2_network.content_distribution 	client-17 	30
scalar tree_4_3_u05_r2_network.content_distribution 	client-18 	31
scalar tree_4_3_u05_r2_network.content_distribution 	client-19 	32
scalar tree_4_3_u05_r2_network.content_distribution 	client-20 	33
scalar tree_4_3_u05_r2_network.content_distribution 	client-21 	34
scalar tree_4_3_u05_r2_network.content_distribution 	client-22 	35
scalar tree_4_3_u05_r2_network.content_distribution 	client-23 	36
scalar tree_4_3_u05_r2_network.content_distribution 	client-24 	37
scalar tree_4_3_u05_r2_network.content_distribution 	client-25 	38
scalar tree_4_3_u05_r2_network.content_distribution 	client-26 	39
scalar tree_4_3_u05_r2_network.content_distribution 	repo-0_card 	100000
scalar tree_4_3_u05_r2_network.content_distribution 	repo-0_price 	0
scalar tree_4_3_u05_r2_network.statistics 	stabilization_time 	628.8
scalar tree_4_3_u05_r2_network.statistics 	p_hit 	0.11325718563691
scalar tree_4_3_u05_r2_network.statistics 	interests 	28083.15
scalar tree_4_3_u05_r2_network.statistics 	data 	19976.7
scalar tree_4_3_u05_r2_network.statistics 	hdistance 	3.2520272898393
scalar tree_4_3_u05_r2_network.statistics 	avg_time 	0.004928759905
scalar tree_4_3_u05_r2_network.statistics 	downloads 	324242
scalar tree_4_3_u05_r2_network.statistics 	total_cost 	0
scalar tree_4_3_u05_r2_network.statistics 	total_replicas 	100000
scalar tree_4_3_u05_r2_network.statistics 	inner_hit 	0.21252953041247
scalar tree_4_3_u05_r2_network.node[0].core_layer 	interests[0] 	259873
scalar tree_4_3_u05_r2_network.node[0].core_layer 	repo_load[0] 	255331
scalar tree_4_3_u05_r2_network.node[0].core_layer 	data[0] 	0
scalar tree_4_3_u05_r2_network.node[0].core_layer 	repo_int[0] 	255331
scalar tree_4_3_u05_r2_network.node[0].content_store 	p_hit[0] 	0.01747776798667
scalar tree_4_3_u05_r2_network.node[0].content_store 	hits[0] 	4542
scalar tree_4_3_u05_r2_network.node[0].content_store 	misses[0] 	255331
scalar tree_4_3_u05_r2_network.node[0].content_store 	decision_yes[0] 	255331
scalar tree_4_3_u05_r2_network.node[0].content_store 	decision_no[0] 	0
scalar tree_4_3_u05_r2_network.node[0].content_store 	decision_ratio[0] 	1
scalar tree_4_3_u05_r2_network.node[1].core_layer 	interests[1] 	137396
scalar tree_4_3_u05_r2_network.node[1].core_layer 	data[1] 	134049
scalar tree_4_3_u05_r2_network.node[1].content_store 	p_hit[1] 	0.024258348132406
scalar tree_4_3_u05_r2_network.node[1].content_store 	hits[1] 	3333
scalar tree_4_3_u05_r2_network.node[1].content_store 	misses[1] 	134063
scalar tree_4_3_u05_r2_network.node[1].content_store 	decision_yes[1] 	134049
scalar tree_4_3_u05_r2_network.node[1].content_store 	decision_no[1] 	0
scalar tree_4_3_u05_r2_network.node[1].content_store 	decision_ratio[1] 	1
scalar tree_4_3_u05_r2_network.node[2].core_layer 	interests[2] 	39870
scalar tree_4_3_u05_r2_network.node[2].core_layer 	data[2] 	39141
scalar tree_4_3_u05_r2_network.node[2].content_store 	p_hit[2] 	0.018284424379233
scalar tree_4_3_u05_r2_network.node[2].content_store 	hits[2] 	729
scalar tree_4_3_u05_r2_network.node[2].content_store 	misses[2] 	39141
scalar tree_4_3_u05_r2_network.node[2].content_store 	decision_yes[2] 	39141
scalar tree_4_3_u05_r2_network.node[2].content_store 	decision_no[2] 	0
scalar tree_4_3_u05_r2_network.node[2].content_store 	decision_ratio[2] 	1
scalar tree_4_3_u05_r2_network.node[3].core_layer 	interests[3] 	88439
scalar tree_4_3_u05_r2_network.node[3].core_layer 	data[3] 	86684
scalar tree_4_3_u05_r2_network.node[3].content_store 	p_hit[3] 	0.019832879159647
scalar tree_4_3_u05_r2_network.node[3].content_store 	hits[3] 	1754
scalar tree_4_3_u05_r2_network.node[3].content_store 	misses[3] 	86685
scalar tree_4_3_u05_r2_network.node[3].content_store 	decision_yes[3] 	86684
scalar tree_4_3_u05_r2_network.node[3].content_store 	decision_no[3] 	0
scalar tree_4_3_u05_r2_network.node[3].content_store 	decision_ratio[3] 	1
scalar tree_4_3_u05_r2_network.node[4].core_layer 	interests[4] 	30612
scalar tree_4_3_u05_r2_network.node[4].core_layer 	data[4] 	29769
scalar tree_4_3_u05_r2_network.node[4].content_store 	p_hit[4] 	0.02750555337776
scalar tree_4_3_u05_r2_network.node[4].content_store 	hits[4] 	842
scalar tree_4_3_u05_r2_network.node[4].content_store 	misses[4] 	29770
scalar tree_4_3_u05_r2_network.node[4].content_store 	decision_yes[4] 	29769
scalar tree_4_3_u05_r2_network.node[4].content_store 	decision_no[4] 	0
scalar tree_4_3_u05_r2_network.node[4].content_store 	decision_ratio[4] 	1
scalar tree_4_3_u05_r2_network.node[5].core_layer 	interests[5] 	40697
scalar tree_4_3_u05_r2_network.node[5].core_layer 	data[5] 	39413
scalar tree_4_3_u05_r2_network.node[5].content_store 	p_hit[5] 	0.031501093446691
scalar tree_4_3_u05_r2_network.node[5].content_store 	hits[5] 	1282
scalar tree_4_3_u05_r2_network.node[5].content_store 	misses[5] 	39415
scalar tree_4_3_u05_r2_network.node[5].content_store 	decision_yes[5] 	39413
scalar tree_4_3_u05_r2_network.node[5].content_store 	decision_no[5] 	0
scalar tree_4_3_u05_r2_network.node[5].content_store 	decision_ratio[5] 	1
scalar tree_4_3_u05_r2_network.node[6].core_layer 	interests[6] 	20187
scalar tree_4_3_u05_r2_network.node[6].core_layer 	data[6] 	19736
scalar tree_4_3_u05_r2_network.node[6].content_store 	p_hit[6] 	0.022242036954476
scalar tree_4_3_u05_r2_network.node[6].content_store 	hits[6] 	449
scalar tree_4_3_u05_r2_network.node[6].content_store 	misses[6] 	19738
scalar tree_4_3_u05_r2_network.node[6].content_store 	decision_yes[6] 	19736
scalar tree_4_3_u05_r2_network.node[6].content_store 	decision_no[6] 	0
scalar tree_4_3_u05_r2_network.node[6].content_store 	decision_ratio[6] 	1
scalar tree_4_3_u05_r2_network.node[7].core_layer 	interests[7] 	50163
scalar tree_4_3_u05_r2_network.node[7].core_layer 	data[7] 	48478
scalar tree_4_3_u05_r2_network.node[7].content_store 	p_hit[7] 	0.033470884915177
scalar tree_4_3_u05_r2_network.node[7].content_store 	hits[7] 	1679
scalar tree_4_3_u05_r2_network.node[7].content_store 	misses[7] 	48484
scalar tree_4_3_u05_r2_network.node[7].content_store 	decision_yes[7] 	48478
scalar tree_4_3_u05_r2_network.node[7].content_store 	decision_no[7] 	0
scalar tree_4_3_u05_r2_network.node[7].content_store 	decision_ratio[7] 	1
scalar tree_4_3_u05_r2_network.node[8].core_layer 	interests[8] 	20413
scalar tree_4_3_u05_r2_network.node[8].core_layer 	data[8] 	19970
scalar tree_4_3_u05_r2_network.node[8].content_store 	p_hit[8] 	0.021701856659972
scalar tree_4_3_u05_r2_network.node[8].content_store 	hits[8] 	443
scalar tree_4_3_u05_r2_network.node[8].content_store 	misses[8] 	19970
scalar tree_4_3_u05_r2_network.node[8].content_store 	decision_yes[8] 	19970
scalar tree_4_3_u05_r2_network.node[8].content_store 	decision_no[8] 	0
scalar tree_4_3_u05_r2_network.node[8].content_store 	decision_ratio[8] 	1
scalar tree_4_3_u05_r2_network.node[9].core_layer 	interests[9] 	20342
scalar tree_4_3_u05_r2_network.node[9].core_layer 	data[9] 	19900
scalar tree_4_3_u05_r2_network.node[9].content_store 	p_hit[9] 	0.021728443614197
scalar tree_4_3_u05_r2_network.node[9].content_store 	hits[9] 	442
scalar tree_4_3_u05_r2_network.node[9].content_store 	misses[9] 	19900
scalar tree_4_3_u05_r2_network.node[9].content_store 	decision_yes[9] 	19900
scalar tree_4_3_u05_r2_network.node[9].content_store 	decision_no[9] 	0
scalar tree_4_3_u05_r2_network.node[9].content_store 	decision_ratio[9] 	1
scalar tree_4_3_u05_r2_network.node[10].core_layer 	interests[10] 	50539
scalar tree_4_3_u05_r2_network.node[10].core_layer 	data[10] 	48788
scalar tree_4_3_u05_r2_network.node[10].content_store 	p_hit[10] 	0.034547577118661
scalar tree_4_3_u05_r2_network.node[10].content_store 	hits[10] 	1746
scalar tree_4_3_u05_r2_network.node[10].content_store 	misses[10] 	48793
scalar tree_4_3_u05_r2_network.node[10].content_store 	decision_yes[10] 	48788
scalar tree_4_3_u05_r2_network.node[10].content_store 	decision_no[10] 	0
scalar tree_4_3_u05_r2_network.node[10].content_store 	decision_ratio[10] 	1
scalar tree_4_3_u05_r2_network.node[11].core_layer 	interests[11] 	30253
scalar tree_4_3_u05_r2_network.node[11].core_layer 	data[11] 	29404
scalar tree_4_3_u05_r2_network.node[11].content_store 	p_hit[11] 	0.02809638713516
scalar tree_4_3_u05_r2_network.node[11].content_store 	hits[11] 	850
scalar tree_4_3_u05_r2_network.node[11].content_store 	misses[11] 	29403
scalar tree_4_3_u05_r2_network.node[11].content_store 	decision_yes[11] 	29404
scalar tree_4_3_u05_r2_network.node[11].content_store 	decision_no[11] 	0
scalar tree_4_3_u05_r2_network.node[11].content_store 	decision_ratio[11] 	1
scalar tree_4_3_u05_r2_network.node[12].core_layer 	interests[12] 	10284
scalar tree_4_3_u05_r2_network.node[12].core_layer 	data[12] 	10248
scalar tree_4_3_u05_r2_network.node[12].content_store 	p_hit[12] 	0.0035005834305718
scalar tree_4_3_u05_r2_network.node[12].content_store 	hits[12] 	36
scalar tree_4_3_u05_r2_network.node[12].content_store 	misses[12] 	10248
scalar tree_4_3_u05_r2_network.node[12].content_store 	decision_yes[12] 	10248
scalar tree_4_3_u05_r2_network.node[12].content_store 	decision_no[12] 	0
scalar tree_4_3_u05_r2_network.node[12].content_store 	decision_ratio[12] 	1
scalar tree_4_3_u05_r2_network.node[13].core_layer 	interests[13] 	12192
scalar tree_4_3_u05_r2_network.node[13].core_layer 	data[13] 	10276
scalar tree_4_3_u05_r2_network.node[13].content_store 	p_hit[13] 	0.15715223097113
scalar tree_4_3_u05_r2_network.node[13].content_store 	hits[13] 	1916
scalar tree_4_3_u05_r2_network.node[13].content_store 	misses[13] 	10276
scalar tree_4_3_u05_r2_network.node[13].content_store 	decision_yes[13] 	10276
scalar tree_4_3_u05_r2_network.node[13].content_store 	decision_no[13] 	0
scalar tree_4_3_u05_r2_network.node[13].content_store 	decision_ratio[13] 	1
scalar tree_4_3_u05_r2_network.node[14].core_layer 	interests[14] 	11966
scalar tree_4_3_u05_r2_network.node[14].core_layer 	data[14] 	10149
scalar tree_4_3_u05_r2_network.node[14].content_store 	p_hit[14] 	0.15176332943339
scalar tree_4_3_u05_r2_network.node[14].content_store 	hits[14] 	1816
scalar tree_4_3_u05_r2_network.node[14].content_store 	misses[14] 	10150
scalar tree_4_3_u05_r2_network.node[14].content_store 	decision_yes[14] 	10149
scalar tree_4_3_u05_r2_network.node[14].content_store 	decision_no[14] 	0
scalar tree_4_3_u05_r2_network.node[14].content_store 	decision_ratio[14] 	1
scalar tree_4_3_u05_r2_network.node[15].core_layer 	interests[15] 	12059
scalar tree_4_3_u05_r2_network.node[15].core_layer 	data[15] 	10187
scalar tree_4_3_u05_r2_network.node[15].content_store 	p_hit[15] 	0.15523675263289
scalar tree_4_3_u05_r2_network.node[15].content_store 	hits[15] 	1872
scalar tree_4_3_u05_r2_network.node[15].content_store 	misses[15] 	10187
scalar tree_4_3_u05_r2_network.node[15].content_store 	decision_yes[15] 	10187
scalar tree_4_3_u05_r2_network.node[15].content_store 	decision_no[15] 	0
scalar tree_4_3_u05_r2_network.node[15].content_store 	decision_ratio[15] 	1
scalar tree_4_3_u05_r2_network.node[16].core_layer 	interests[16] 	11903
scalar tree_4_3_u05_r2_network.node[16].core_layer 	data[16] 	10046
scalar tree_4_3_u05_r2_network.node[16].content_store 	p_hit[16] 	0.15601108964127
scalar tree_4_3_u05_r2_network.node[16].content_store 	hits[16] 	1857
scalar tree_4_3_u05_r2_network.node[16].content_store 	misses[16] 	10046
scalar tree_4_3_u05_r2_network.node[16].content_store 	decision_yes[16] 	10046
scalar tree_4_3_u05_r2_network.node[16].content_store 	decision_no[16] 	0
scalar tree_4_3_u05_r2_network.node[16].content_store 	decision_ratio[16] 	1
scalar tree_4_3_u05_r2_network.node[17].core_layer 	interests[17] 	11982
scalar tree_4_3_u05_r2_network.node[17].core_layer 	data[17] 	10151
scalar tree_4_3_u05_r2_network.node[17].content_store 	p_hit[17] 	0.15272909364046
scalar tree_4_3_u05_r2_network.node[17].content_store 	hits[17] 	1830
scalar tree_4_3_u05_r2_network.node[17].content_store 	misses[17] 	10152
scalar tree_4_3_u05_r2_network.node[17].content_store 	decision_yes[17] 	10151
scalar tree_4_3_u05_r2_network.node[17].content_store 	decision_no[17] 	0
scalar tree_4_3_u05_r2_network.node[17].content_store 	decision_ratio[17] 	1
scalar tree_4_3_u05_r2_network.node[18].core_layer 	interests[18] 	12042
scalar tree_4_3_u05_r2_network.node[18].core_layer 	data[18] 	10256
scalar tree_4_3_u05_r2_network.node[18].content_store 	p_hit[18] 	0.14814814814815
scalar tree_4_3_u05_r2_network.node[18].content_store 	hits[18] 	1784
scalar tree_4_3_u05_r2_network.node[18].content_store 	misses[18] 	10258
scalar tree_4_3_u05_r2_network.node[18].content_store 	decision_yes[18] 	10256
scalar tree_4_3_u05_r2_network.node[18].content_store 	decision_no[18] 	0
scalar tree_4_3_u05_r2_network.node[18].content_store 	decision_ratio[18] 	1
scalar tree_4_3_u05_r2_network.node[19].core_layer 	interests[19] 	11871
scalar tree_4_3_u05_r2_network.node[19].core_layer 	data[19] 	10014
scalar tree_4_3_u05_r2_network.node[19].content_store 	p_hit[19] 	0.15634740122989
scalar tree_4_3_u05_r2_network.node[19].content_store 	hits[19] 	1856
scalar tree_4_3_u05_r2_network.node[19].content_store 	misses[19] 	10015
scalar tree_4_3_u05_r2_network.node[19].content_store 	decision_yes[19] 	10014
scalar tree_4_3_u05_r2_network.node[19].content_store 	decision_no[19] 	0
scalar tree_4_3_u05_r2_network.node[19].content_store 	decision_ratio[19] 	1
scalar tree_4_3_u05_r2_network.node[20].core_layer 	interests[20] 	12196
scalar tree_4_3_u05_r2_network.node[20].core_layer 	data[20] 	10242
scalar tree_4_3_u05_r2_network.node[20].content_store 	p_hit[20] 	0.16013447031814
scalar tree_4_3_u05_r2_network.node[20].content_store 	hits[20] 	1953
scalar tree_4_3_u05_r2_network.node[20].content_store 	misses[20] 	10243
scalar tree_4_3_u05_r2_network.node[20].content_store 	decision_yes[20] 	10242
scalar tree_4_3_u05_r2_network.node[20].content_store 	decision_no[20] 	0
scalar tree_4_3_u05_r2_network.node[20].content_store 	decision_ratio[20] 	1
scalar tree_4_3_u05_r2_network.node[21].core_layer 	interests[21] 	12078
scalar tree_4_3_u05_r2_network.node[21].core_layer 	data[21] 	10172
scalar tree_4_3_u05_r2_network.node[21].content_store 	p_hit[21] 	0.15764199370757
scalar tree_4_3_u05_r2_network.node[21].content_store 	hits[21] 	1904
scalar tree_4_3_u05_r2_network.node[21].content_store 	misses[21] 	10174
scalar tree_4_3_u05_r2_network.node[21].content_store 	decision_yes[21] 	10172
scalar tree_4_3_u05_r2_network.node[21].content_store 	decision_no[21] 	0
scalar tree_4_3_u05_r2_network.node[21].content_store 	decision_ratio[21] 	1
scalar tree_4_3_u05_r2_network.node[22].core_layer 	interests[22] 	11833
scalar tree_4_3_u05_r2_network.node[22].core_layer 	data[22] 	9963
scalar tree_4_3_u05_r2_network.node[22].content_store 	p_hit[22] 	0.1579481112144
scalar tree_4_3_u05_r2_network.node[22].content_store 	hits[22] 	1869
scalar tree_4_3_u05_r2_network.node[22].content_store 	misses[22] 	9964
scalar tree_4_3_u05_r2_network.node[22].content_store 	decision_yes[22] 	9963
scalar tree_4_3_u05_r2_network.node[22].content_store 	decision_no[22] 	0
scalar tree_4_3_u05_r2_network.node[22].content_store 	decision_ratio[22] 	1
scalar tree_4_3_u05_r2_network.node[23].core_layer 	interests[23] 	11950
scalar tree_4_3_u05_r2_network.node[23].core_layer 	data[23] 	10058
scalar tree_4_3_u05_r2_network.node[23].content_store 	p_hit[23] 	0.15832635983264
scalar tree_4_3_u05_r2_network.node[23].content_store 	hits[23] 	1892
scalar tree_4_3_u05_r2_network.node[23].content_store 	misses[23] 	10058
scalar tree_4_3_u05_r2_network.node[23].content_store 	decision_yes[23] 	10058
scalar tree_4_3_u05_r2_network.node[23].content_store 	decision_no[23] 	0
scalar tree_4_3_u05_r2_network.node[23].content_store 	decision_ratio[23] 	1
scalar tree_4_3_u05_r2_network.node[24].core_layer 	interests[24] 	11827
scalar tree_4_3_u05_r2_network.node[24].core_layer 	data[24] 	9922
scalar tree_4_3_u05_r2_network.node[24].content_store 	p_hit[24] 	0.16090301851695
scalar tree_4_3_u05_r2_network.node[24].content_store 	hits[24] 	1903
scalar tree_4_3_u05_r2_network.node[24].content_store 	misses[24] 	9924
scalar tree_4_3_u05_r2_network.node[24].content_store 	decision_yes[24] 	9922
scalar tree_4_3_u05_r2_network.node[24].content_store 	decision_no[24] 	0
scalar tree_4_3_u05_r2_network.node[24].content_store 	decision_ratio[24] 	1
scalar tree_4_3_u05_r2_network.node[25].core_layer 	interests[25] 	12045
scalar tree_4_3_u05_r2_network.node[25].core_layer 	data[25] 	10191
scalar tree_4_3_u05_r2_network.node[25].content_store 	p_hit[25] 	0.15392278953923
scalar tree_4_3_u05_r2_network.node[25].content_store 	hits[25] 	1854
scalar tree_4_3_u05_r2_network.node[25].content_store 	misses[25] 	10191
scalar tree_4_3_u05_r2_network.node[25].content_store 	decision_yes[25] 	10191
scalar tree_4_3_u05_r2_network.node[25].content_store 	decision_no[25] 	0
scalar tree_4_3_u05_r2_network.node[25].content_store 	decision_ratio[25] 	1
scalar tree_4_3_u05_r2_network.node[26].core_layer 	interests[26] 	12003
scalar tree_4_3_u05_r2_network.node[26].core_layer 	data[26] 	10116
scalar tree_4_3_u05_r2_network.node[26].content_store 	p_hit[26] 	0.15704407231525
scalar tree_4_3_u05_r2_network.node[26].content_store 	hits[26] 	1885
scalar tree_4_3_u05_r2_network.node[26].content_store 	misses[26] 	10118
scalar tree_4_3_u05_r2_network.node[26].content_store 	decision_yes[26] 	10116
scalar tree_4_3_u05_r2_network.node[26].content_store 	decision_no[26] 	0
scalar tree_4_3_u05_r2_network.node[26].content_store 	decision_ratio[26] 	1
scalar tree_4_3_u05_r2_network.node[27].core_layer 	interests[27] 	12241
scalar tree_4_3_u05_r2_network.node[27].core_layer 	data[27] 	10297
scalar tree_4_3_u05_r2_network.node[27].content_store 	p_hit[27] 	0.15872886202108
scalar tree_4_3_u05_r2_network.node[27].content_store 	hits[27] 	1943
scalar tree_4_3_u05_r2_network.node[27].content_store 	misses[27] 	10298
scalar tree_4_3_u05_r2_network.node[27].content_store 	decision_yes[27] 	10297
scalar tree_4_3_u05_r2_network.node[27].content_store 	decision_no[27] 	0
scalar tree_4_3_u05_r2_network.node[27].content_store 	decision_ratio[27] 	1
scalar tree_4_3_u05_r2_network.node[28].core_layer 	interests[28] 	11916
scalar tree_4_3_u05_r2_network.node[28].core_layer 	data[28] 	10029
scalar tree_4_3_u05_r2_network.node[28].content_store 	p_hit[28] 	0.15835850956697
scalar tree_4_3_u05_r2_network.node[28].content_store 	hits[28] 	1887
scalar tree_4_3_u05_r2_network.node[28].content_store 	misses[28] 	10029
scalar tree_4_3_u05_r2_network.node[28].content_store 	decision_yes[28] 	10029
scalar tree_4_3_u05_r2_network.node[28].content_store 	decision_no[28] 	0
scalar tree_4_3_u05_r2_network.node[28].content_store 	decision_ratio[28] 	1
scalar tree_4_3_u05_r2_network.node[29].core_layer 	interests[29] 	12084
scalar tree_4_3_u05_r2_network.node[29].core_layer 	data[29] 	10190
scalar tree_4_3_u05_r2_network.node[29].content_store 	p_hit[29] 	0.15648791790798
scalar tree_4_3_u05_r2_network.node[29].content_store 	hits[29] 	1891
scalar tree_4_3_u05_r2_network.node[29].content_store 	misses[29] 	10193
scalar tree_4_3_u05_r2_network.node[29].content_store 	decision_yes[29] 	10190
scalar tree_4_3_u05_r2_network.node[29].content_store 	decision_no[29] 	0
scalar tree_4_3_u05_r2_network.node[29].content_store 	decision_ratio[29] 	1
scalar tree_4_3_u05_r2_network.node[30].core_layer 	interests[30] 	12076
scalar tree_4_3_u05_r2_network.node[30].core_layer 	data[30] 	10152
scalar tree_4_3_u05_r2_network.node[30].content_store 	p_hit[30] 	0.15932427956277
scalar tree_4_3_u05_r2_network.node[30].content_store 	hits[30] 	1924
scalar tree_4_3_u05_r2_network.node[30].content_store 	misses[30] 	10152
scalar tree_4_3_u05_r2_network.node[30].content_store 	decision_yes[30] 	10152
scalar tree_4_3_u05_r2_network.node[30].content_store 	decision_no[30] 	0
scalar tree_4_3_u05_r2_network.node[30].content_store 	decision_ratio[30] 	1
scalar tree_4_3_u05_r2_network.node[31].core_layer 	interests[31] 	12125
scalar tree_4_3_u05_r2_network.node[31].core_layer 	data[31] 	10211
scalar tree_4_3_u05_r2_network.node[31].content_store 	p_hit[31] 	0.15785567010309
scalar tree_4_3_u05_r2_network.node[31].content_store 	hits[31] 	1914
scalar tree_4_3_u05_r2_network.node[31].content_store 	misses[31] 	10211
scalar tree_4_3_u05_r2_network.node[31].content_store 	decision_yes[31] 	10211
scalar tree_4_3_u05_r2_network.node[31].content_store 	decision_no[31] 	0
scalar tree_4_3_u05_r2_network.node[31].content_store 	decision_ratio[31] 	1
scalar tree_4_3_u05_r2_network.node[32].core_layer 	interests[32] 	11984
scalar tree_4_3_u05_r2_network.node[32].core_layer 	data[32] 	10112
scalar tree_4_3_u05_r2_network.node[32].content_store 	p_hit[32] 	0.1562082777036
scalar tree_4_3_u05_r2_network.node[32].content_store 	hits[32] 	1872
scalar tree_4_3_u05_r2_network.node[32].content_store 	misses[32] 	10112
scalar tree_4_3_u05_r2_network.node[32].content_store 	decision_yes[32] 	10112
scalar tree_4_3_u05_r2_network.node[32].content_store 	decision_no[32] 	0
scalar tree_4_3_u05_r2_network.node[32].content_store 	decision_ratio[32] 	1
scalar tree_4_3_u05_r2_network.node[33].core_layer 	interests[33] 	12002
scalar tree_4_3_u05_r2_network.node[33].core_layer 	data[33] 	10152
scalar tree_4_3_u05_r2_network.node[33].content_store 	p_hit[33] 	0.15414097650392
scalar tree_4_3_u05_r2_network.node[33].content_store 	hits[33] 	1850
scalar tree_4_3_u05_r2_network.node[33].content_store 	misses[33] 	10152
scalar tree_4_3_u05_r2_network.node[33].content_store 	decision_yes[33] 	10152
scalar tree_4_3_u05_r2_network.node[33].content_store 	decision_no[33] 	0
scalar tree_4_3_u05_r2_network.node[33].content_store 	decision_ratio[33] 	1
scalar tree_4_3_u05_r2_network.node[34].core_layer 	interests[34] 	11913
scalar tree_4_3_u05_r2_network.node[34].core_layer 	data[34] 	9962
scalar tree_4_3_u05_r2_network.node[34].content_store 	p_hit[34] 	0.16377067069588
scalar tree_4_3_u05_r2_network.node[34].content_store 	hits[34] 	1951
scalar tree_4_3_u05_r2_network.node[34].content_store 	misses[34] 	9962
scalar tree_4_3_u05_r2_network.node[34].content_store 	decision_yes[34] 	9962
scalar tree_4_3_u05_r2_network.node[34].content_store 	decision_no[34] 	0
scalar tree_4_3_u05_r2_network.node[34].content_store 	decision_ratio[34] 	1
scalar tree_4_3_u05_r2_network.node[35].core_layer 	interests[35] 	11832
scalar tree_4_3_u05_r2_network.node[35].core_layer 	data[35] 	9913
scalar tree_4_3_u05_r2_network.node[35].content_store 	p_hit[35] 	0.16218728870859
scalar tree_4_3_u05_r2_network.node[35].content_store 	hits[35] 	1919
scalar tree_4_3_u05_r2_network.node[35].content_store 	misses[35] 	9913
scalar tree_4_3_u05_r2_network.node[35].content_store 	decision_yes[35] 	9913
scalar tree_4_3_u05_r2_network.node[35].content_store 	decision_no[35] 	0
scalar tree_4_3_u05_r2_network.node[35].content_store 	decision_ratio[35] 	1
scalar tree_4_3_u05_r2_network.node[36].core_layer 	interests[36] 	12006
scalar tree_4_3_u05_r2_network.node[36].core_layer 	data[36] 	10187
scalar tree_4_3_u05_r2_network.node[36].content_store 	p_hit[36] 	0.15159087123105
scalar tree_4_3_u05_r2_network.node[36].content_store 	hits[36] 	1820
scalar tree_4_3_u05_r2_network.node[36].content_store 	misses[36] 	10186
scalar tree_4_3_u05_r2_network.node[36].content_store 	decision_yes[36] 	10187
scalar tree_4_3_u05_r2_network.node[36].content_store 	decision_no[36] 	0
scalar tree_4_3_u05_r2_network.node[36].content_store 	decision_ratio[36] 	1
scalar tree_4_3_u05_r2_network.node[37].core_layer 	interests[37] 	11882
scalar tree_4_3_u05_r2_network.node[37].core_layer 	data[37] 	10102
scalar tree_4_3_u05_r2_network.node[37].content_store 	p_hit[37] 	0.14980642989396
scalar tree_4_3_u05_r2_network.node[37].content_store 	hits[37] 	1780
scalar tree_4_3_u05_r2_network.node[37].content_store 	misses[37] 	10102
scalar tree_4_3_u05_r2_network.node[37].content_store 	decision_yes[37] 	10102
scalar tree_4_3_u05_r2_network.node[37].content_store 	decision_no[37] 	0
scalar tree_4_3_u05_r2_network.node[37].content_store 	decision_ratio[37] 	1
scalar tree_4_3_u05_r2_network.node[38].core_layer 	interests[38] 	12029
scalar tree_4_3_u05_r2_network.node[38].core_layer 	data[38] 	10154
scalar tree_4_3_u05_r2_network.node[38].content_store 	p_hit[38] 	0.15587330617674
scalar tree_4_3_u05_r2_network.node[38].content_store 	hits[38] 	1875
scalar tree_4_3_u05_r2_network.node[38].content_store 	misses[38] 	10154
scalar tree_4_3_u05_r2_network.node[38].content_store 	decision_yes[38] 	10154
scalar tree_4_3_u05_r2_network.node[38].content_store 	decision_no[38] 	0
scalar tree_4_3_u05_r2_network.node[38].content_store 	decision_ratio[38] 	1
scalar tree_4_3_u05_r2_network.node[39].core_layer 	interests[39] 	12221
scalar tree_4_3_u05_r2_network.node[39].core_layer 	data[39] 	10284
scalar tree_4_3_u05_r2_network.node[39].content_store 	p_hit[39] 	0.15849766794861
scalar tree_4_3_u05_r2_network.node[39].content_store 	hits[39] 	1937
scalar tree_4_3_u05_r2_network.node[39].content_store 	misses[39] 	10284
scalar tree_4_3_u05_r2_network.node[39].content_store 	decision_yes[39] 	10284
scalar tree_4_3_u05_r2_network.node[39].content_store 	decision_no[39] 	0
scalar tree_4_3_u05_r2_network.node[39].content_store 	decision_ratio[39] 	1
scalar tree_4_3_u05_r2_network.client[13] 	hdistance[13] 	3.2418799212598
scalar tree_4_3_u05_r2_network.client[13] 	downloads[13] 	12192
scalar tree_4_3_u05_r2_network.client[13] 	avg_time[13] 	0.004913049282
scalar tree_4_3_u05_r2_network.client[14] 	hdistance[14] 	3.268700376097
scalar tree_4_3_u05_r2_network.client[14] 	downloads[14] 	11965
scalar tree_4_3_u05_r2_network.client[14] 	avg_time[14] 	0.004953688762
scalar tree_4_3_u05_r2_network.client[15] 	hdistance[15] 	3.262874201841
scalar tree_4_3_u05_r2_network.client[15] 	downloads[15] 	12059
scalar tree_4_3_u05_r2_network.client[15] 	avg_time[15] 	0.004942452943
scalar tree_4_3_u05_r2_network.client[16] 	hdistance[16] 	3.2496849533731
scalar tree_4_3_u05_r2_network.client[16] 	downloads[16] 	11903
scalar tree_4_3_u05_r2_network.client[16] 	avg_time[16] 	0.004922298756
scalar tree_4_3_u05_r2_network.client[17] 	hdistance[17] 	3.2584926133044
scalar tree_4_3_u05_r2_network.client[17] 	downloads[17] 	11981
scalar tree_4_3_u05_r2_network.client[17] 	avg_time[17] 	0.004934533666
scalar tree_4_3_u05_r2_network.client[18] 	hdistance[18] 	3.2744186046512
scalar tree_4_3_u05_r2_network.client[18] 	downloads[18] 	12040
scalar tree_4_3_u05_r2_network.client[18] 	avg_time[18] 	0.004962621601
scalar tree_4_3_u05_r2_network.client[19] 	hdistance[19] 	3.2589721988206
scalar tree_4_3_u05_r2_network.client[19] 	downloads[19] 	11870
scalar tree_4_3_u05_r2_network.client[19] 	avg_time[19] 	0.004938468214
scalar tree_4_3_u05_r2_network.client[20] 	hdistance[20] 	3.2328823288233
scalar tree_4_3_u05_r2_network.client[20] 	downloads[20] 	12195
scalar tree_4_3_u05_r2_network.client[20] 	avg_time[20] 	0.004896515851
scalar tree_4_3_u05_r2_network.client[21] 	hdistance[21] 	3.2528983106989
scalar tree_4_3_u05_r2_network.client[21] 	downloads[21] 	12076
scalar tree_4_3_u05_r2_network.client[21] 	avg_time[21] 	0.00492813098
scalar tree_4_3_u05_r2_network.client[22] 	hdistance[22] 	3.229124408384
scalar tree_4_3_u05_r2_network.client[22] 	downloads[22] 	11832
scalar tree_4_3_u05_r2_network.client[22] 	avg_time[22] 	0.004894309732
scalar tree_4_3_u05_r2_network.client[23] 	hdistance[23] 	3.2321338912134
scalar tree_4_3_u05_r2_network.client[23] 	downloads[23] 	11950
scalar tree_4_3_u05_r2_network.client[23] 	avg_time[23] 	0.004900058275
scalar tree_4_3_u05_r2_network.client[24] 	hdistance[24] 	3.2279915433404
scalar tree_4_3_u05_r2_network.client[24] 	downloads[24] 	11825
scalar tree_4_3_u05_r2_network.client[24] 	avg_time[24] 	0.004889864957
scalar tree_4_3_u05_r2_network.client[25] 	hdistance[25] 	3.2520547945205
scalar tree_4_3_u05_r2_network.client[25] 	downloads[25] 	12045
scalar tree_4_3_u05_r2_network.client[25] 	avg_time[25] 	0.004926857399
scalar tree_4_3_u05_r2_network.client[26] 	hdistance[26] 	3.2643946337805
scalar tree_4_3_u05_r2_network.client[26] 	downloads[26] 	12001
scalar tree_4_3_u05_r2_network.client[26] 	avg_time[26] 	0.004951429301
scalar tree_4_3_u05_r2_network.client[27] 	hdistance[27] 	3.2598039215686
scalar tree_4_3_u05_r2_network.client[27] 	downloads[27] 	12240
scalar tree_4_3_u05_r2_network.client[27] 	avg_time[27] 	0.004944744593
scalar tree_4_3_u05_r2_network.client[28] 	hdistance[28] 	3.2411043974488
scalar tree_4_3_u05_r2_network.client[28] 	downloads[28] 	11916
scalar tree_4_3_u05_r2_network.client[28] 	avg_time[28] 	0.004909587478
scalar tree_4_3_u05_r2_network.client[29] 	hdistance[29] 	3.2675275225561
scalar tree_4_3_u05_r2_network.client[29] 	downloads[29] 	12081
scalar tree_4_3_u05_r2_network.client[29] 	avg_time[29] 	0.004957285965
scalar tree_4_3_u05_r2_network.client[30] 	hdistance[30] 	3.2593574031136
scalar tree_4_3_u05_r2_network.client[30] 	downloads[30] 	12076
scalar tree_4_3_u05_r2_network.client[30] 	avg_time[30] 	0.004942527622
scalar tree_4_3_u05_r2_network.client[31] 	hdistance[31] 	3.2450309278351
scalar tree_4_3_u05_r2_network.client[31] 	downloads[31] 	12125
scalar tree_4_3_u05_r2_network.client[31] 	avg_time[31] 	0.004917325465
scalar tree_4_3_u05_r2_network.client[32] 	hdistance[32] 	3.2510013351135
scalar tree_4_3_u05_r2_network.client[32] 	downloads[32] 	11984
scalar tree_4_3_u05_r2_network.client[32] 	avg_time[32] 	0.004924541546
scalar tree_4_3_u05_r2_network.client[33] 	hdistance[33] 	3.255707382103
scalar tree_4_3_u05_r2_network.client[33] 	downloads[33] 	12002
scalar tree_4_3_u05_r2_network.client[33] 	avg_time[33] 	0.004936211094
scalar tree_4_3_u05_r2_network.client[34] 	hdistance[34] 	3.2212708805507
scalar tree_4_3_u05_r2_network.client[34] 	downloads[34] 	11913
scalar tree_4_3_u05_r2_network.client[34] 	avg_time[34] 	0.004880883435
scalar tree_4_3_u05_r2_network.client[35] 	hdistance[35] 	3.2325895875592
scalar tree_4_3_u05_r2_network.client[35] 	downloads[35] 	11832
scalar tree_4_3_u05_r2_network.client[35] 	avg_time[35] 	0.004900605557
scalar tree_4_3_u05_r2_network.client[36] 	hdistance[36] 	3.2695094528192
scalar tree_4_3_u05_r2_network.client[36] 	downloads[36] 	12007
scalar tree_4_3_u05_r2_network.client[36] 	avg_time[36] 	0.004957938202
scalar tree_4_3_u05_r2_network.client[37] 	hdistance[37] 	3.2576165628682
scalar tree_4_3_u05_r2_network.client[37] 	downloads[37] 	11882
scalar tree_4_3_u05_r2_network.client[37] 	avg_time[37] 	0.0049387388
scalar tree_4_3_u05_r2_network.client[38] 	hdistance[38] 	3.2521406600715
scalar tree_4_3_u05_r2_network.client[38] 	downloads[38] 	12029
scalar tree_4_3_u05_r2_network.client[38] 	avg_time[38] 	0.004931080213
scalar tree_4_3_u05_r2_network.client[39] 	hdistance[39] 	3.2855740119466
scalar tree_4_3_u05_r2_network.client[39] 	downloads[39] 	12221
scalar tree_4_3_u05_r2_network.client[39] 	avg_time[39] 	0.00498076777
