version 2
run General-56-20160819-07:39:58-13837
attr a 0.9
attr cd fix0.1
attr configname General
attr cr lru
attr datetime 20160819-07:39:58
attr experiment General
attr fsize 1
attr inifile hw5115/scenario_A/NRR-FIX0.1.ini
attr iterationvars "$name=tree_4_3, $un=02, $rep=17, $cd=fix0.1, $cr=lru, $fsize=1, $a=0.9, $sl=nrr, $ttl=1000, $variance=0.05"
attr iterationvars2 "$name=tree_4_3, $un=02, $rep=17, $cd=fix0.1, $cr=lru, $fsize=1, $a=0.9, $sl=nrr, $ttl=1000, $variance=0.05, $repetition=0"
attr measurement "$name=tree_4_3, $un=02, $rep=17, $cd=fix0.1, $cr=lru, $fsize=1, $a=0.9, $sl=nrr, $ttl=1000, $variance=0.05"
attr name tree_4_3
attr network networks.${name}_u${un}_r${rep}_network
attr processid 13837
attr rep 17
attr repetition 0
attr replication #0
attr resultdir results
attr runnumber 56
attr seedset 17
attr sl nrr
attr ttl 1000
attr un 02
attr variance 0.05

scalar . 	a 	0.9
scalar . 	fsize 	1
scalar . 	rep 	17
scalar . 	ttl 	1000
scalar . 	un 	02
scalar . 	variance 	0.05
scalar tree_4_3_u02_r17_network.content_distribution 	repo-0 	0
scalar tree_4_3_u02_r17_network.content_distribution 	client-0 	13
scalar tree_4_3_u02_r17_network.content_distribution 	client-1 	14
scalar tree_4_3_u02_r17_network.content_distribution 	client-2 	15
scalar tree_4_3_u02_r17_network.content_distribution 	client-3 	16
scalar tree_4_3_u02_r17_network.content_distribution 	client-4 	17
scalar tree_4_3_u02_r17_network.content_distribution 	client-5 	18
scalar tree_4_3_u02_r17_network.content_distribution 	client-6 	19
scalar tree_4_3_u02_r17_network.content_distribution 	client-7 	20
scalar tree_4_3_u02_r17_network.content_distribution 	client-8 	21
scalar tree_4_3_u02_r17_network.content_distribution 	client-9 	22
scalar tree_4_3_u02_r17_network.content_distribution 	client-10 	23
scalar tree_4_3_u02_r17_network.content_distribution 	client-11 	24
scalar tree_4_3_u02_r17_network.content_distribution 	client-12 	25
scalar tree_4_3_u02_r17_network.content_distribution 	client-13 	26
scalar tree_4_3_u02_r17_network.content_distribution 	client-14 	27
scalar tree_4_3_u02_r17_network.content_distribution 	client-15 	28
scalar tree_4_3_u02_r17_network.content_distribution 	client-16 	29
scalar tree_4_3_u02_r17_network.content_distribution 	client-17 	30
scalar tree_4_3_u02_r17_network.content_distribution 	client-18 	31
scalar tree_4_3_u02_r17_network.content_distribution 	client-19 	32
scalar tree_4_3_u02_r17_network.content_distribution 	client-20 	33
scalar tree_4_3_u02_r17_network.content_distribution 	client-21 	34
scalar tree_4_3_u02_r17_network.content_distribution 	client-22 	35
scalar tree_4_3_u02_r17_network.content_distribution 	client-23 	36
scalar tree_4_3_u02_r17_network.content_distribution 	client-24 	37
scalar tree_4_3_u02_r17_network.content_distribution 	client-25 	38
scalar tree_4_3_u02_r17_network.content_distribution 	client-26 	39
scalar tree_4_3_u02_r17_network.content_distribution 	repo-0_card 	100000
scalar tree_4_3_u02_r17_network.content_distribution 	repo-0_price 	0
scalar tree_4_3_u02_r17_network.statistics 	stabilization_time 	753.8
scalar tree_4_3_u02_r17_network.statistics 	p_hit 	0.21490524367625
scalar tree_4_3_u02_r17_network.statistics 	interests 	26659.9
scalar tree_4_3_u02_r17_network.statistics 	data 	18549.75
scalar tree_4_3_u02_r17_network.statistics 	hdistance 	2.8807805687738
scalar tree_4_3_u02_r17_network.statistics 	avg_time 	0.004574514581
scalar tree_4_3_u02_r17_network.statistics 	downloads 	324401
scalar tree_4_3_u02_r17_network.statistics 	total_cost 	0
scalar tree_4_3_u02_r17_network.statistics 	total_replicas 	100000
scalar tree_4_3_u02_r17_network.statistics 	inner_hit 	0.4065246407995
scalar tree_4_3_u02_r17_network.node[0].core_layer 	interests[0] 	193819
scalar tree_4_3_u02_r17_network.node[0].core_layer 	repo_load[0] 	192524
scalar tree_4_3_u02_r17_network.node[0].core_layer 	data[0] 	0
scalar tree_4_3_u02_r17_network.node[0].core_layer 	repo_int[0] 	192524
scalar tree_4_3_u02_r17_network.node[0].content_store 	p_hit[0] 	0.0066814914946419
scalar tree_4_3_u02_r17_network.node[0].content_store 	hits[0] 	1295
scalar tree_4_3_u02_r17_network.node[0].content_store 	misses[0] 	192524
scalar tree_4_3_u02_r17_network.node[0].content_store 	decision_yes[0] 	19217
scalar tree_4_3_u02_r17_network.node[0].content_store 	decision_no[0] 	173307
scalar tree_4_3_u02_r17_network.node[0].content_store 	decision_ratio[0] 	0.099816126820552
scalar tree_4_3_u02_r17_network.node[1].core_layer 	interests[1] 	139429
scalar tree_4_3_u02_r17_network.node[1].core_layer 	data[1] 	137744
scalar tree_4_3_u02_r17_network.node[1].content_store 	p_hit[1] 	0.012041971182466
scalar tree_4_3_u02_r17_network.node[1].content_store 	hits[1] 	1679
scalar tree_4_3_u02_r17_network.node[1].content_store 	misses[1] 	137750
scalar tree_4_3_u02_r17_network.node[1].content_store 	decision_yes[1] 	13788
scalar tree_4_3_u02_r17_network.node[1].content_store 	decision_no[1] 	123955
scalar tree_4_3_u02_r17_network.node[1].content_store 	decision_ratio[1] 	0.10009946058965
scalar tree_4_3_u02_r17_network.node[2].core_layer 	interests[2] 	44220
scalar tree_4_3_u02_r17_network.node[2].core_layer 	data[2] 	43074
scalar tree_4_3_u02_r17_network.node[2].content_store 	p_hit[2] 	0.025915875169607
scalar tree_4_3_u02_r17_network.node[2].content_store 	hits[2] 	1146
scalar tree_4_3_u02_r17_network.node[2].content_store 	misses[2] 	43074
scalar tree_4_3_u02_r17_network.node[2].content_store 	decision_yes[2] 	4327
scalar tree_4_3_u02_r17_network.node[2].content_store 	decision_no[2] 	38747
scalar tree_4_3_u02_r17_network.node[2].content_store 	decision_ratio[2] 	0.1004550308771
scalar tree_4_3_u02_r17_network.node[3].core_layer 	interests[3] 	43147
scalar tree_4_3_u02_r17_network.node[3].core_layer 	data[3] 	42100
scalar tree_4_3_u02_r17_network.node[3].content_store 	p_hit[3] 	0.024242705170696
scalar tree_4_3_u02_r17_network.node[3].content_store 	hits[3] 	1046
scalar tree_4_3_u02_r17_network.node[3].content_store 	misses[3] 	42101
scalar tree_4_3_u02_r17_network.node[3].content_store 	decision_yes[3] 	4077
scalar tree_4_3_u02_r17_network.node[3].content_store 	decision_no[3] 	38023
scalar tree_4_3_u02_r17_network.node[3].content_store 	decision_ratio[3] 	0.096840855106888
scalar tree_4_3_u02_r17_network.node[4].core_layer 	interests[4] 	32018
scalar tree_4_3_u02_r17_network.node[4].core_layer 	data[4] 	29260
scalar tree_4_3_u02_r17_network.node[4].content_store 	p_hit[4] 	0.086107814354426
scalar tree_4_3_u02_r17_network.node[4].content_store 	hits[4] 	2757
scalar tree_4_3_u02_r17_network.node[4].content_store 	misses[4] 	29261
scalar tree_4_3_u02_r17_network.node[4].content_store 	decision_yes[4] 	2891
scalar tree_4_3_u02_r17_network.node[4].content_store 	decision_no[4] 	26369
scalar tree_4_3_u02_r17_network.node[4].content_store 	decision_ratio[4] 	0.098803827751196
scalar tree_4_3_u02_r17_network.node[5].core_layer 	interests[5] 	31907
scalar tree_4_3_u02_r17_network.node[5].core_layer 	data[5] 	29123
scalar tree_4_3_u02_r17_network.node[5].content_store 	p_hit[5] 	0.087222239633936
scalar tree_4_3_u02_r17_network.node[5].content_store 	hits[5] 	2783
scalar tree_4_3_u02_r17_network.node[5].content_store 	misses[5] 	29124
scalar tree_4_3_u02_r17_network.node[5].content_store 	decision_yes[5] 	2812
scalar tree_4_3_u02_r17_network.node[5].content_store 	decision_no[5] 	26311
scalar tree_4_3_u02_r17_network.node[5].content_store 	decision_ratio[5] 	0.096555986677197
scalar tree_4_3_u02_r17_network.node[6].core_layer 	interests[6] 	32139
scalar tree_4_3_u02_r17_network.node[6].core_layer 	data[6] 	29531
scalar tree_4_3_u02_r17_network.node[6].content_store 	p_hit[6] 	0.081116400634743
scalar tree_4_3_u02_r17_network.node[6].content_store 	hits[6] 	2607
scalar tree_4_3_u02_r17_network.node[6].content_store 	misses[6] 	29532
scalar tree_4_3_u02_r17_network.node[6].content_store 	decision_yes[6] 	2880
scalar tree_4_3_u02_r17_network.node[6].content_store 	decision_no[6] 	26651
scalar tree_4_3_u02_r17_network.node[6].content_store 	decision_ratio[6] 	0.097524635129186
scalar tree_4_3_u02_r17_network.node[7].core_layer 	interests[7] 	44576
scalar tree_4_3_u02_r17_network.node[7].core_layer 	data[7] 	40404
scalar tree_4_3_u02_r17_network.node[7].content_store 	p_hit[7] 	0.093570531227566
scalar tree_4_3_u02_r17_network.node[7].content_store 	hits[7] 	4171
scalar tree_4_3_u02_r17_network.node[7].content_store 	misses[7] 	40405
scalar tree_4_3_u02_r17_network.node[7].content_store 	decision_yes[7] 	3933
scalar tree_4_3_u02_r17_network.node[7].content_store 	decision_no[7] 	36471
scalar tree_4_3_u02_r17_network.node[7].content_store 	decision_ratio[7] 	0.097341847341847
scalar tree_4_3_u02_r17_network.node[8].core_layer 	interests[8] 	21123
scalar tree_4_3_u02_r17_network.node[8].core_layer 	data[8] 	19160
scalar tree_4_3_u02_r17_network.node[8].content_store 	p_hit[8] 	0.092979216967287
scalar tree_4_3_u02_r17_network.node[8].content_store 	hits[8] 	1964
scalar tree_4_3_u02_r17_network.node[8].content_store 	misses[8] 	19159
scalar tree_4_3_u02_r17_network.node[8].content_store 	decision_yes[8] 	1985
scalar tree_4_3_u02_r17_network.node[8].content_store 	decision_no[8] 	17175
scalar tree_4_3_u02_r17_network.node[8].content_store 	decision_ratio[8] 	0.1036012526096
scalar tree_4_3_u02_r17_network.node[9].core_layer 	interests[9] 	29622
scalar tree_4_3_u02_r17_network.node[9].core_layer 	data[9] 	28115
scalar tree_4_3_u02_r17_network.node[9].content_store 	p_hit[9] 	0.050840591452299
scalar tree_4_3_u02_r17_network.node[9].content_store 	hits[9] 	1506
scalar tree_4_3_u02_r17_network.node[9].content_store 	misses[9] 	28116
scalar tree_4_3_u02_r17_network.node[9].content_store 	decision_yes[9] 	2802
scalar tree_4_3_u02_r17_network.node[9].content_store 	decision_no[9] 	25313
scalar tree_4_3_u02_r17_network.node[9].content_store 	decision_ratio[9] 	0.09966210208074
scalar tree_4_3_u02_r17_network.node[10].core_layer 	interests[10] 	44145
scalar tree_4_3_u02_r17_network.node[10].core_layer 	data[10] 	40098
scalar tree_4_3_u02_r17_network.node[10].content_store 	p_hit[10] 	0.09162985615585
scalar tree_4_3_u02_r17_network.node[10].content_store 	hits[10] 	4045
scalar tree_4_3_u02_r17_network.node[10].content_store 	misses[10] 	40100
scalar tree_4_3_u02_r17_network.node[10].content_store 	decision_yes[10] 	3986
scalar tree_4_3_u02_r17_network.node[10].content_store 	decision_no[10] 	36112
scalar tree_4_3_u02_r17_network.node[10].content_store 	decision_ratio[10] 	0.099406454187241
scalar tree_4_3_u02_r17_network.node[11].core_layer 	interests[11] 	38115
scalar tree_4_3_u02_r17_network.node[11].core_layer 	data[11] 	36701
scalar tree_4_3_u02_r17_network.node[11].content_store 	p_hit[11] 	0.037072018890201
scalar tree_4_3_u02_r17_network.node[11].content_store 	hits[11] 	1413
scalar tree_4_3_u02_r17_network.node[11].content_store 	misses[11] 	36702
scalar tree_4_3_u02_r17_network.node[11].content_store 	decision_yes[11] 	3642
scalar tree_4_3_u02_r17_network.node[11].content_store 	decision_no[11] 	33059
scalar tree_4_3_u02_r17_network.node[11].content_store 	decision_ratio[11] 	0.099234353287376
scalar tree_4_3_u02_r17_network.node[12].core_layer 	interests[12] 	12353
scalar tree_4_3_u02_r17_network.node[12].core_layer 	data[12] 	9781
scalar tree_4_3_u02_r17_network.node[12].content_store 	p_hit[12] 	0.20820853234032
scalar tree_4_3_u02_r17_network.node[12].content_store 	hits[12] 	2572
scalar tree_4_3_u02_r17_network.node[12].content_store 	misses[12] 	9781
scalar tree_4_3_u02_r17_network.node[12].content_store 	decision_yes[12] 	955
scalar tree_4_3_u02_r17_network.node[12].content_store 	decision_no[12] 	8826
scalar tree_4_3_u02_r17_network.node[12].content_store 	decision_ratio[12] 	0.097638278294653
scalar tree_4_3_u02_r17_network.node[13].core_layer 	interests[13] 	13261
scalar tree_4_3_u02_r17_network.node[13].core_layer 	data[13] 	9569
scalar tree_4_3_u02_r17_network.node[13].content_store 	p_hit[13] 	0.27841037629138
scalar tree_4_3_u02_r17_network.node[13].content_store 	hits[13] 	3692
scalar tree_4_3_u02_r17_network.node[13].content_store 	misses[13] 	9569
scalar tree_4_3_u02_r17_network.node[13].content_store 	decision_yes[13] 	1001
scalar tree_4_3_u02_r17_network.node[13].content_store 	decision_no[13] 	8568
scalar tree_4_3_u02_r17_network.node[13].content_store 	decision_ratio[13] 	0.10460863204097
scalar tree_4_3_u02_r17_network.node[14].core_layer 	interests[14] 	13061
scalar tree_4_3_u02_r17_network.node[14].core_layer 	data[14] 	9405
scalar tree_4_3_u02_r17_network.node[14].content_store 	p_hit[14] 	0.27991731107878
scalar tree_4_3_u02_r17_network.node[14].content_store 	hits[14] 	3656
scalar tree_4_3_u02_r17_network.node[14].content_store 	misses[14] 	9405
scalar tree_4_3_u02_r17_network.node[14].content_store 	decision_yes[14] 	913
scalar tree_4_3_u02_r17_network.node[14].content_store 	decision_no[14] 	8492
scalar tree_4_3_u02_r17_network.node[14].content_store 	decision_ratio[14] 	0.097076023391813
scalar tree_4_3_u02_r17_network.node[15].core_layer 	interests[15] 	13335
scalar tree_4_3_u02_r17_network.node[15].core_layer 	data[15] 	9527
scalar tree_4_3_u02_r17_network.node[15].content_store 	p_hit[15] 	0.28556430446194
scalar tree_4_3_u02_r17_network.node[15].content_store 	hits[15] 	3808
scalar tree_4_3_u02_r17_network.node[15].content_store 	misses[15] 	9527
scalar tree_4_3_u02_r17_network.node[15].content_store 	decision_yes[15] 	912
scalar tree_4_3_u02_r17_network.node[15].content_store 	decision_no[15] 	8615
scalar tree_4_3_u02_r17_network.node[15].content_store 	decision_ratio[15] 	0.095727931143067
scalar tree_4_3_u02_r17_network.node[16].core_layer 	interests[16] 	13218
scalar tree_4_3_u02_r17_network.node[16].core_layer 	data[16] 	9441
scalar tree_4_3_u02_r17_network.node[16].content_store 	p_hit[16] 	0.28574670903314
scalar tree_4_3_u02_r17_network.node[16].content_store 	hits[16] 	3777
scalar tree_4_3_u02_r17_network.node[16].content_store 	misses[16] 	9441
scalar tree_4_3_u02_r17_network.node[16].content_store 	decision_yes[16] 	974
scalar tree_4_3_u02_r17_network.node[16].content_store 	decision_no[16] 	8467
scalar tree_4_3_u02_r17_network.node[16].content_store 	decision_ratio[16] 	0.10316703739011
scalar tree_4_3_u02_r17_network.node[17].core_layer 	interests[17] 	13111
scalar tree_4_3_u02_r17_network.node[17].core_layer 	data[17] 	9378
scalar tree_4_3_u02_r17_network.node[17].content_store 	p_hit[17] 	0.28472275188773
scalar tree_4_3_u02_r17_network.node[17].content_store 	hits[17] 	3733
scalar tree_4_3_u02_r17_network.node[17].content_store 	misses[17] 	9378
scalar tree_4_3_u02_r17_network.node[17].content_store 	decision_yes[17] 	1000
scalar tree_4_3_u02_r17_network.node[17].content_store 	decision_no[17] 	8378
scalar tree_4_3_u02_r17_network.node[17].content_store 	decision_ratio[17] 	0.10663254425251
scalar tree_4_3_u02_r17_network.node[18].core_layer 	interests[18] 	13248
scalar tree_4_3_u02_r17_network.node[18].core_layer 	data[18] 	9582
scalar tree_4_3_u02_r17_network.node[18].content_store 	p_hit[18] 	0.27664553140097
scalar tree_4_3_u02_r17_network.node[18].content_store 	hits[18] 	3665
scalar tree_4_3_u02_r17_network.node[18].content_store 	misses[18] 	9583
scalar tree_4_3_u02_r17_network.node[18].content_store 	decision_yes[18] 	908
scalar tree_4_3_u02_r17_network.node[18].content_store 	decision_no[18] 	8674
scalar tree_4_3_u02_r17_network.node[18].content_store 	decision_ratio[18] 	0.09476101022751
scalar tree_4_3_u02_r17_network.node[19].core_layer 	interests[19] 	13353
scalar tree_4_3_u02_r17_network.node[19].core_layer 	data[19] 	9669
scalar tree_4_3_u02_r17_network.node[19].content_store 	p_hit[19] 	0.2758181682019
scalar tree_4_3_u02_r17_network.node[19].content_store 	hits[19] 	3683
scalar tree_4_3_u02_r17_network.node[19].content_store 	misses[19] 	9670
scalar tree_4_3_u02_r17_network.node[19].content_store 	decision_yes[19] 	953
scalar tree_4_3_u02_r17_network.node[19].content_store 	decision_no[19] 	8716
scalar tree_4_3_u02_r17_network.node[19].content_store 	decision_ratio[19] 	0.098562415968559
scalar tree_4_3_u02_r17_network.node[20].core_layer 	interests[20] 	13363
scalar tree_4_3_u02_r17_network.node[20].core_layer 	data[20] 	9638
scalar tree_4_3_u02_r17_network.node[20].content_store 	p_hit[20] 	0.27875477063534
scalar tree_4_3_u02_r17_network.node[20].content_store 	hits[20] 	3725
scalar tree_4_3_u02_r17_network.node[20].content_store 	misses[20] 	9638
scalar tree_4_3_u02_r17_network.node[20].content_store 	decision_yes[20] 	938
scalar tree_4_3_u02_r17_network.node[20].content_store 	decision_no[20] 	8700
scalar tree_4_3_u02_r17_network.node[20].content_store 	decision_ratio[20] 	0.097323096078024
scalar tree_4_3_u02_r17_network.node[21].core_layer 	interests[21] 	13250
scalar tree_4_3_u02_r17_network.node[21].core_layer 	data[21] 	9481
scalar tree_4_3_u02_r17_network.node[21].content_store 	p_hit[21] 	0.28445283018868
scalar tree_4_3_u02_r17_network.node[21].content_store 	hits[21] 	3769
scalar tree_4_3_u02_r17_network.node[21].content_store 	misses[21] 	9481
scalar tree_4_3_u02_r17_network.node[21].content_store 	decision_yes[21] 	932
scalar tree_4_3_u02_r17_network.node[21].content_store 	decision_no[21] 	8549
scalar tree_4_3_u02_r17_network.node[21].content_store 	decision_ratio[21] 	0.098301866891678
scalar tree_4_3_u02_r17_network.node[22].core_layer 	interests[22] 	13750
scalar tree_4_3_u02_r17_network.node[22].core_layer 	data[22] 	9533
scalar tree_4_3_u02_r17_network.node[22].content_store 	p_hit[22] 	0.30669090909091
scalar tree_4_3_u02_r17_network.node[22].content_store 	hits[22] 	4217
scalar tree_4_3_u02_r17_network.node[22].content_store 	misses[22] 	9533
scalar tree_4_3_u02_r17_network.node[22].content_store 	decision_yes[22] 	981
scalar tree_4_3_u02_r17_network.node[22].content_store 	decision_no[22] 	8552
scalar tree_4_3_u02_r17_network.node[22].content_store 	decision_ratio[22] 	0.10290569600336
scalar tree_4_3_u02_r17_network.node[23].core_layer 	interests[23] 	13861
scalar tree_4_3_u02_r17_network.node[23].core_layer 	data[23] 	9646
scalar tree_4_3_u02_r17_network.node[23].content_store 	p_hit[23] 	0.30409061395282
scalar tree_4_3_u02_r17_network.node[23].content_store 	hits[23] 	4215
scalar tree_4_3_u02_r17_network.node[23].content_store 	misses[23] 	9646
scalar tree_4_3_u02_r17_network.node[23].content_store 	decision_yes[23] 	1021
scalar tree_4_3_u02_r17_network.node[23].content_store 	decision_no[23] 	8625
scalar tree_4_3_u02_r17_network.node[23].content_store 	decision_ratio[23] 	0.10584698320547
scalar tree_4_3_u02_r17_network.node[24].core_layer 	interests[24] 	13954
scalar tree_4_3_u02_r17_network.node[24].core_layer 	data[24] 	9622
scalar tree_4_3_u02_r17_network.node[24].content_store 	p_hit[24] 	0.31037695284506
scalar tree_4_3_u02_r17_network.node[24].content_store 	hits[24] 	4331
scalar tree_4_3_u02_r17_network.node[24].content_store 	misses[24] 	9623
scalar tree_4_3_u02_r17_network.node[24].content_store 	decision_yes[24] 	988
scalar tree_4_3_u02_r17_network.node[24].content_store 	decision_no[24] 	8634
scalar tree_4_3_u02_r17_network.node[24].content_store 	decision_ratio[24] 	0.1026813552276
scalar tree_4_3_u02_r17_network.node[25].core_layer 	interests[25] 	14565
scalar tree_4_3_u02_r17_network.node[25].core_layer 	data[25] 	9547
scalar tree_4_3_u02_r17_network.node[25].content_store 	p_hit[25] 	0.34438722966014
scalar tree_4_3_u02_r17_network.node[25].content_store 	hits[25] 	5016
scalar tree_4_3_u02_r17_network.node[25].content_store 	misses[25] 	9549
scalar tree_4_3_u02_r17_network.node[25].content_store 	decision_yes[25] 	976
scalar tree_4_3_u02_r17_network.node[25].content_store 	decision_no[25] 	8571
scalar tree_4_3_u02_r17_network.node[25].content_store 	decision_ratio[25] 	0.102231067351
scalar tree_4_3_u02_r17_network.node[26].core_layer 	interests[26] 	12876
scalar tree_4_3_u02_r17_network.node[26].core_layer 	data[26] 	9594
scalar tree_4_3_u02_r17_network.node[26].content_store 	p_hit[26] 	0.25497048772911
scalar tree_4_3_u02_r17_network.node[26].content_store 	hits[26] 	3283
scalar tree_4_3_u02_r17_network.node[26].content_store 	misses[26] 	9593
scalar tree_4_3_u02_r17_network.node[26].content_store 	decision_yes[26] 	998
scalar tree_4_3_u02_r17_network.node[26].content_store 	decision_no[26] 	8596
scalar tree_4_3_u02_r17_network.node[26].content_store 	decision_ratio[26] 	0.10402334792579
scalar tree_4_3_u02_r17_network.node[27].core_layer 	interests[27] 	12784
scalar tree_4_3_u02_r17_network.node[27].core_layer 	data[27] 	9467
scalar tree_4_3_u02_r17_network.node[27].content_store 	p_hit[27] 	0.25946495619524
scalar tree_4_3_u02_r17_network.node[27].content_store 	hits[27] 	3317
scalar tree_4_3_u02_r17_network.node[27].content_store 	misses[27] 	9467
scalar tree_4_3_u02_r17_network.node[27].content_store 	decision_yes[27] 	989
scalar tree_4_3_u02_r17_network.node[27].content_store 	decision_no[27] 	8478
scalar tree_4_3_u02_r17_network.node[27].content_store 	decision_ratio[27] 	0.10446815252984
scalar tree_4_3_u02_r17_network.node[28].core_layer 	interests[28] 	12850
scalar tree_4_3_u02_r17_network.node[28].core_layer 	data[28] 	9294
scalar tree_4_3_u02_r17_network.node[28].content_store 	p_hit[28] 	0.27673151750973
scalar tree_4_3_u02_r17_network.node[28].content_store 	hits[28] 	3556
scalar tree_4_3_u02_r17_network.node[28].content_store 	misses[28] 	9294
scalar tree_4_3_u02_r17_network.node[28].content_store 	decision_yes[28] 	888
scalar tree_4_3_u02_r17_network.node[28].content_store 	decision_no[28] 	8406
scalar tree_4_3_u02_r17_network.node[28].content_store 	decision_ratio[28] 	0.095545513234345
scalar tree_4_3_u02_r17_network.node[29].core_layer 	interests[29] 	12757
scalar tree_4_3_u02_r17_network.node[29].core_layer 	data[29] 	9525
scalar tree_4_3_u02_r17_network.node[29].content_store 	p_hit[29] 	0.25335110135612
scalar tree_4_3_u02_r17_network.node[29].content_store 	hits[29] 	3232
scalar tree_4_3_u02_r17_network.node[29].content_store 	misses[29] 	9525
scalar tree_4_3_u02_r17_network.node[29].content_store 	decision_yes[29] 	957
scalar tree_4_3_u02_r17_network.node[29].content_store 	decision_no[29] 	8568
scalar tree_4_3_u02_r17_network.node[29].content_store 	decision_ratio[29] 	0.10047244094488
scalar tree_4_3_u02_r17_network.node[30].core_layer 	interests[30] 	13020
scalar tree_4_3_u02_r17_network.node[30].core_layer 	data[30] 	9411
scalar tree_4_3_u02_r17_network.node[30].content_store 	p_hit[30] 	0.27718894009217
scalar tree_4_3_u02_r17_network.node[30].content_store 	hits[30] 	3609
scalar tree_4_3_u02_r17_network.node[30].content_store 	misses[30] 	9411
scalar tree_4_3_u02_r17_network.node[30].content_store 	decision_yes[30] 	917
scalar tree_4_3_u02_r17_network.node[30].content_store 	decision_no[30] 	8494
scalar tree_4_3_u02_r17_network.node[30].content_store 	decision_ratio[30] 	0.097439166932313
scalar tree_4_3_u02_r17_network.node[31].core_layer 	interests[31] 	13842
scalar tree_4_3_u02_r17_network.node[31].core_layer 	data[31] 	9556
scalar tree_4_3_u02_r17_network.node[31].content_store 	p_hit[31] 	0.30963733564514
scalar tree_4_3_u02_r17_network.node[31].content_store 	hits[31] 	4286
scalar tree_4_3_u02_r17_network.node[31].content_store 	misses[31] 	9556
scalar tree_4_3_u02_r17_network.node[31].content_store 	decision_yes[31] 	943
scalar tree_4_3_u02_r17_network.node[31].content_store 	decision_no[31] 	8613
scalar tree_4_3_u02_r17_network.node[31].content_store 	decision_ratio[31] 	0.098681456676434
scalar tree_4_3_u02_r17_network.node[32].core_layer 	interests[32] 	13661
scalar tree_4_3_u02_r17_network.node[32].core_layer 	data[32] 	9549
scalar tree_4_3_u02_r17_network.node[32].content_store 	p_hit[32] 	0.30107605592563
scalar tree_4_3_u02_r17_network.node[32].content_store 	hits[32] 	4113
scalar tree_4_3_u02_r17_network.node[32].content_store 	misses[32] 	9548
scalar tree_4_3_u02_r17_network.node[32].content_store 	decision_yes[32] 	927
scalar tree_4_3_u02_r17_network.node[32].content_store 	decision_no[32] 	8622
scalar tree_4_3_u02_r17_network.node[32].content_store 	decision_ratio[32] 	0.097078228086711
scalar tree_4_3_u02_r17_network.node[33].core_layer 	interests[33] 	13888
scalar tree_4_3_u02_r17_network.node[33].core_layer 	data[33] 	9728
scalar tree_4_3_u02_r17_network.node[33].content_store 	p_hit[33] 	0.29953917050691
scalar tree_4_3_u02_r17_network.node[33].content_store 	hits[33] 	4160
scalar tree_4_3_u02_r17_network.node[33].content_store 	misses[33] 	9728
scalar tree_4_3_u02_r17_network.node[33].content_store 	decision_yes[33] 	953
scalar tree_4_3_u02_r17_network.node[33].content_store 	decision_no[33] 	8775
scalar tree_4_3_u02_r17_network.node[33].content_store 	decision_ratio[33] 	0.097964638157895
scalar tree_4_3_u02_r17_network.node[34].core_layer 	interests[34] 	12983
scalar tree_4_3_u02_r17_network.node[34].core_layer 	data[34] 	9465
scalar tree_4_3_u02_r17_network.node[34].content_store 	p_hit[34] 	0.27096972964646
scalar tree_4_3_u02_r17_network.node[34].content_store 	hits[34] 	3518
scalar tree_4_3_u02_r17_network.node[34].content_store 	misses[34] 	9465
scalar tree_4_3_u02_r17_network.node[34].content_store 	decision_yes[34] 	969
scalar tree_4_3_u02_r17_network.node[34].content_store 	decision_no[34] 	8496
scalar tree_4_3_u02_r17_network.node[34].content_store 	decision_ratio[34] 	0.10237717908082
scalar tree_4_3_u02_r17_network.node[35].core_layer 	interests[35] 	12793
scalar tree_4_3_u02_r17_network.node[35].core_layer 	data[35] 	9389
scalar tree_4_3_u02_r17_network.node[35].content_store 	p_hit[35] 	0.26608301414836
scalar tree_4_3_u02_r17_network.node[35].content_store 	hits[35] 	3404
scalar tree_4_3_u02_r17_network.node[35].content_store 	misses[35] 	9389
scalar tree_4_3_u02_r17_network.node[35].content_store 	decision_yes[35] 	941
scalar tree_4_3_u02_r17_network.node[35].content_store 	decision_no[35] 	8448
scalar tree_4_3_u02_r17_network.node[35].content_store 	decision_ratio[35] 	0.10022366599212
scalar tree_4_3_u02_r17_network.node[36].core_layer 	interests[36] 	12856
scalar tree_4_3_u02_r17_network.node[36].core_layer 	data[36] 	9443
scalar tree_4_3_u02_r17_network.node[36].content_store 	p_hit[36] 	0.26547915370255
scalar tree_4_3_u02_r17_network.node[36].content_store 	hits[36] 	3413
scalar tree_4_3_u02_r17_network.node[36].content_store 	misses[36] 	9443
scalar tree_4_3_u02_r17_network.node[36].content_store 	decision_yes[36] 	947
scalar tree_4_3_u02_r17_network.node[36].content_store 	decision_no[36] 	8496
scalar tree_4_3_u02_r17_network.node[36].content_store 	decision_ratio[36] 	0.10028592608281
scalar tree_4_3_u02_r17_network.node[37].core_layer 	interests[37] 	14092
scalar tree_4_3_u02_r17_network.node[37].core_layer 	data[37] 	9399
scalar tree_4_3_u02_r17_network.node[37].content_store 	p_hit[37] 	0.33295486801022
scalar tree_4_3_u02_r17_network.node[37].content_store 	hits[37] 	4692
scalar tree_4_3_u02_r17_network.node[37].content_store 	misses[37] 	9400
scalar tree_4_3_u02_r17_network.node[37].content_store 	decision_yes[37] 	1035
scalar tree_4_3_u02_r17_network.node[37].content_store 	decision_no[37] 	8364
scalar tree_4_3_u02_r17_network.node[37].content_store 	decision_ratio[37] 	0.11011809766996
scalar tree_4_3_u02_r17_network.node[38].core_layer 	interests[38] 	13587
scalar tree_4_3_u02_r17_network.node[38].core_layer 	data[38] 	9547
scalar tree_4_3_u02_r17_network.node[38].content_store 	p_hit[38] 	0.29726944873776
scalar tree_4_3_u02_r17_network.node[38].content_store 	hits[38] 	4039
scalar tree_4_3_u02_r17_network.node[38].content_store 	misses[38] 	9548
scalar tree_4_3_u02_r17_network.node[38].content_store 	decision_yes[38] 	984
scalar tree_4_3_u02_r17_network.node[38].content_store 	decision_no[38] 	8563
scalar tree_4_3_u02_r17_network.node[38].content_store 	decision_ratio[38] 	0.10306902691945
scalar tree_4_3_u02_r17_network.node[39].core_layer 	interests[39] 	12464
scalar tree_4_3_u02_r17_network.node[39].core_layer 	data[39] 	9494
scalar tree_4_3_u02_r17_network.node[39].content_store 	p_hit[39] 	0.23828626444159
scalar tree_4_3_u02_r17_network.node[39].content_store 	hits[39] 	2970
scalar tree_4_3_u02_r17_network.node[39].content_store 	misses[39] 	9494
scalar tree_4_3_u02_r17_network.node[39].content_store 	decision_yes[39] 	993
scalar tree_4_3_u02_r17_network.node[39].content_store 	decision_no[39] 	8501
scalar tree_4_3_u02_r17_network.node[39].content_store 	decision_ratio[39] 	0.10459237413103
scalar tree_4_3_u02_r17_network.client[13] 	hdistance[13] 	2.9056979348097
scalar tree_4_3_u02_r17_network.client[13] 	downloads[13] 	12057
scalar tree_4_3_u02_r17_network.client[13] 	avg_time[13] 	0.004647307756
scalar tree_4_3_u02_r17_network.client[14] 	hdistance[14] 	2.9013680121601
scalar tree_4_3_u02_r17_network.client[14] 	downloads[14] 	11842
scalar tree_4_3_u02_r17_network.client[14] 	avg_time[14] 	0.004636577053
scalar tree_4_3_u02_r17_network.client[15] 	hdistance[15] 	2.9092725153987
scalar tree_4_3_u02_r17_network.client[15] 	downloads[15] 	12014
scalar tree_4_3_u02_r17_network.client[15] 	avg_time[15] 	0.004647738301
scalar tree_4_3_u02_r17_network.client[16] 	hdistance[16] 	2.8887869945811
scalar tree_4_3_u02_r17_network.client[16] 	downloads[16] 	11995
scalar tree_4_3_u02_r17_network.client[16] 	avg_time[16] 	0.004614057126
scalar tree_4_3_u02_r17_network.client[17] 	hdistance[17] 	2.8808845702798
scalar tree_4_3_u02_r17_network.client[17] 	downloads[17] 	11938
scalar tree_4_3_u02_r17_network.client[17] 	avg_time[17] 	0.004608809199
scalar tree_4_3_u02_r17_network.client[18] 	hdistance[18] 	2.920189747004
scalar tree_4_3_u02_r17_network.client[18] 	downloads[18] 	12016
scalar tree_4_3_u02_r17_network.client[18] 	avg_time[18] 	0.004660738005
scalar tree_4_3_u02_r17_network.client[19] 	hdistance[19] 	2.9398328229744
scalar tree_4_3_u02_r17_network.client[19] 	downloads[19] 	12083
scalar tree_4_3_u02_r17_network.client[19] 	avg_time[19] 	0.004701177842
scalar tree_4_3_u02_r17_network.client[20] 	hdistance[20] 	2.9023527476143
scalar tree_4_3_u02_r17_network.client[20] 	downloads[20] 	12156
scalar tree_4_3_u02_r17_network.client[20] 	avg_time[20] 	0.004640832762
scalar tree_4_3_u02_r17_network.client[21] 	hdistance[21] 	2.889960106383
scalar tree_4_3_u02_r17_network.client[21] 	downloads[21] 	12032
scalar tree_4_3_u02_r17_network.client[21] 	avg_time[21] 	0.004611573399
scalar tree_4_3_u02_r17_network.client[22] 	hdistance[22] 	2.8860887096774
scalar tree_4_3_u02_r17_network.client[22] 	downloads[22] 	11904
scalar tree_4_3_u02_r17_network.client[22] 	avg_time[22] 	0.00462193759
scalar tree_4_3_u02_r17_network.client[23] 	hdistance[23] 	2.8525994891654
scalar tree_4_3_u02_r17_network.client[23] 	downloads[23] 	12137
scalar tree_4_3_u02_r17_network.client[23] 	avg_time[23] 	0.004575097877
scalar tree_4_3_u02_r17_network.client[24] 	hdistance[24] 	2.8418792832962
scalar tree_4_3_u02_r17_network.client[24] 	downloads[24] 	12111
scalar tree_4_3_u02_r17_network.client[24] 	avg_time[24] 	0.004570776701
scalar tree_4_3_u02_r17_network.client[25] 	hdistance[25] 	2.7995664498916
scalar tree_4_3_u02_r17_network.client[25] 	downloads[25] 	11994
scalar tree_4_3_u02_r17_network.client[25] 	avg_time[25] 	0.004470511557
scalar tree_4_3_u02_r17_network.client[26] 	hdistance[26] 	2.8908941755537
scalar tree_4_3_u02_r17_network.client[26] 	downloads[26] 	12190
scalar tree_4_3_u02_r17_network.client[26] 	avg_time[26] 	0.004543557248
scalar tree_4_3_u02_r17_network.client[27] 	hdistance[27] 	2.9024309300589
scalar tree_4_3_u02_r17_network.client[27] 	downloads[27] 	12053
scalar tree_4_3_u02_r17_network.client[27] 	avg_time[27] 	0.004550399333
scalar tree_4_3_u02_r17_network.client[28] 	hdistance[28] 	2.9011422812028
scalar tree_4_3_u02_r17_network.client[28] 	downloads[28] 	11906
scalar tree_4_3_u02_r17_network.client[28] 	avg_time[28] 	0.00454795601
scalar tree_4_3_u02_r17_network.client[29] 	hdistance[29] 	2.9339243894279
scalar tree_4_3_u02_r17_network.client[29] 	downloads[29] 	11956
scalar tree_4_3_u02_r17_network.client[29] 	avg_time[29] 	0.004611689389
scalar tree_4_3_u02_r17_network.client[30] 	hdistance[30] 	2.8813853529509
scalar tree_4_3_u02_r17_network.client[30] 	downloads[30] 	12098
scalar tree_4_3_u02_r17_network.client[30] 	avg_time[30] 	0.004516115314
scalar tree_4_3_u02_r17_network.client[31] 	hdistance[31] 	2.8484621778886
scalar tree_4_3_u02_r17_network.client[31] 	downloads[31] 	12030
scalar tree_4_3_u02_r17_network.client[31] 	avg_time[31] 	0.004578916653
scalar tree_4_3_u02_r17_network.client[32] 	hdistance[32] 	2.8852790169178
scalar tree_4_3_u02_r17_network.client[32] 	downloads[32] 	11881
scalar tree_4_3_u02_r17_network.client[32] 	avg_time[32] 	0.004629742027
scalar tree_4_3_u02_r17_network.client[33] 	hdistance[33] 	2.8845042516305
scalar tree_4_3_u02_r17_network.client[33] 	downloads[33] 	12113
scalar tree_4_3_u02_r17_network.client[33] 	avg_time[33] 	0.00462923828
scalar tree_4_3_u02_r17_network.client[34] 	hdistance[34] 	2.8861505269272
scalar tree_4_3_u02_r17_network.client[34] 	downloads[34] 	12051
scalar tree_4_3_u02_r17_network.client[34] 	avg_time[34] 	0.004525098616
scalar tree_4_3_u02_r17_network.client[35] 	hdistance[35] 	2.8808190555788
scalar tree_4_3_u02_r17_network.client[35] 	downloads[35] 	11965
scalar tree_4_3_u02_r17_network.client[35] 	avg_time[35] 	0.004514831931
scalar tree_4_3_u02_r17_network.client[36] 	hdistance[36] 	2.8893350062735
scalar tree_4_3_u02_r17_network.client[36] 	downloads[36] 	11955
scalar tree_4_3_u02_r17_network.client[36] 	avg_time[36] 	0.004532475471
scalar tree_4_3_u02_r17_network.client[37] 	hdistance[37] 	2.7587312299646
scalar tree_4_3_u02_r17_network.client[37] 	downloads[37] 	11854
scalar tree_4_3_u02_r17_network.client[37] 	avg_time[37] 	0.00439195062
scalar tree_4_3_u02_r17_network.client[38] 	hdistance[38] 	2.8259897299983
scalar tree_4_3_u02_r17_network.client[38] 	downloads[38] 	12074
scalar tree_4_3_u02_r17_network.client[38] 	avg_time[38] 	0.00439427779
scalar tree_4_3_u02_r17_network.client[39] 	hdistance[39] 	2.8935478492831
scalar tree_4_3_u02_r17_network.client[39] 	downloads[39] 	11996
scalar tree_4_3_u02_r17_network.client[39] 	avg_time[39] 	0.004538509841
