version 2
run General-49-20160819-07:32:37-13837
attr a 0.9
attr cd fix0.1
attr configname General
attr cr lru
attr datetime 20160819-07:32:37
attr experiment General
attr fsize 1
attr inifile hw5115/scenario_A/NRR-FIX0.1.ini
attr iterationvars "$name=tree_4_3, $un=02, $rep=10, $cd=fix0.1, $cr=lru, $fsize=1, $a=0.9, $sl=nrr, $ttl=1000, $variance=0.05"
attr iterationvars2 "$name=tree_4_3, $un=02, $rep=10, $cd=fix0.1, $cr=lru, $fsize=1, $a=0.9, $sl=nrr, $ttl=1000, $variance=0.05, $repetition=0"
attr measurement "$name=tree_4_3, $un=02, $rep=10, $cd=fix0.1, $cr=lru, $fsize=1, $a=0.9, $sl=nrr, $ttl=1000, $variance=0.05"
attr name tree_4_3
attr network networks.${name}_u${un}_r${rep}_network
attr processid 13837
attr rep 10
attr repetition 0
attr replication #0
attr resultdir results
attr runnumber 49
attr seedset 10
attr sl nrr
attr ttl 1000
attr un 02
attr variance 0.05

scalar . 	a 	0.9
scalar . 	fsize 	1
scalar . 	rep 	10
scalar . 	ttl 	1000
scalar . 	un 	02
scalar . 	variance 	0.05
scalar tree_4_3_u02_r10_network.content_distribution 	repo-0 	0
scalar tree_4_3_u02_r10_network.content_distribution 	client-0 	13
scalar tree_4_3_u02_r10_network.content_distribution 	client-1 	14
scalar tree_4_3_u02_r10_network.content_distribution 	client-2 	15
scalar tree_4_3_u02_r10_network.content_distribution 	client-3 	16
scalar tree_4_3_u02_r10_network.content_distribution 	client-4 	17
scalar tree_4_3_u02_r10_network.content_distribution 	client-5 	18
scalar tree_4_3_u02_r10_network.content_distribution 	client-6 	19
scalar tree_4_3_u02_r10_network.content_distribution 	client-7 	20
scalar tree_4_3_u02_r10_network.content_distribution 	client-8 	21
scalar tree_4_3_u02_r10_network.content_distribution 	client-9 	22
scalar tree_4_3_u02_r10_network.content_distribution 	client-10 	23
scalar tree_4_3_u02_r10_network.content_distribution 	client-11 	24
scalar tree_4_3_u02_r10_network.content_distribution 	client-12 	25
scalar tree_4_3_u02_r10_network.content_distribution 	client-13 	26
scalar tree_4_3_u02_r10_network.content_distribution 	client-14 	27
scalar tree_4_3_u02_r10_network.content_distribution 	client-15 	28
scalar tree_4_3_u02_r10_network.content_distribution 	client-16 	29
scalar tree_4_3_u02_r10_network.content_distribution 	client-17 	30
scalar tree_4_3_u02_r10_network.content_distribution 	client-18 	31
scalar tree_4_3_u02_r10_network.content_distribution 	client-19 	32
scalar tree_4_3_u02_r10_network.content_distribution 	client-20 	33
scalar tree_4_3_u02_r10_network.content_distribution 	client-21 	34
scalar tree_4_3_u02_r10_network.content_distribution 	client-22 	35
scalar tree_4_3_u02_r10_network.content_distribution 	client-23 	36
scalar tree_4_3_u02_r10_network.content_distribution 	client-24 	37
scalar tree_4_3_u02_r10_network.content_distribution 	client-25 	38
scalar tree_4_3_u02_r10_network.content_distribution 	client-26 	39
scalar tree_4_3_u02_r10_network.content_distribution 	repo-0_card 	100000
scalar tree_4_3_u02_r10_network.content_distribution 	repo-0_price 	0
scalar tree_4_3_u02_r10_network.statistics 	stabilization_time 	682
scalar tree_4_3_u02_r10_network.statistics 	p_hit 	0.21312194699792
scalar tree_4_3_u02_r10_network.statistics 	interests 	26741.65
scalar tree_4_3_u02_r10_network.statistics 	data 	18626.325
scalar tree_4_3_u02_r10_network.statistics 	hdistance 	2.881709078476
scalar tree_4_3_u02_r10_network.statistics 	avg_time 	0.004590494889
scalar tree_4_3_u02_r10_network.statistics 	downloads 	324598
scalar tree_4_3_u02_r10_network.statistics 	total_cost 	0
scalar tree_4_3_u02_r10_network.statistics 	total_replicas 	100000
scalar tree_4_3_u02_r10_network.statistics 	inner_hit 	0.41352688556307
scalar tree_4_3_u02_r10_network.node[0].core_layer 	interests[0] 	191535
scalar tree_4_3_u02_r10_network.node[0].core_layer 	repo_load[0] 	190368
scalar tree_4_3_u02_r10_network.node[0].core_layer 	data[0] 	0
scalar tree_4_3_u02_r10_network.node[0].core_layer 	repo_int[0] 	190368
scalar tree_4_3_u02_r10_network.node[0].content_store 	p_hit[0] 	0.0060928811966481
scalar tree_4_3_u02_r10_network.node[0].content_store 	hits[0] 	1167
scalar tree_4_3_u02_r10_network.node[0].content_store 	misses[0] 	190368
scalar tree_4_3_u02_r10_network.node[0].content_store 	decision_yes[0] 	18981
scalar tree_4_3_u02_r10_network.node[0].content_store 	decision_no[0] 	171387
scalar tree_4_3_u02_r10_network.node[0].content_store 	decision_ratio[0] 	0.099706883509834
scalar tree_4_3_u02_r10_network.node[1].core_layer 	interests[1] 	96594
scalar tree_4_3_u02_r10_network.node[1].core_layer 	data[1] 	95290
scalar tree_4_3_u02_r10_network.node[1].content_store 	p_hit[1] 	0.013489450690519
scalar tree_4_3_u02_r10_network.node[1].content_store 	hits[1] 	1303
scalar tree_4_3_u02_r10_network.node[1].content_store 	misses[1] 	95291
scalar tree_4_3_u02_r10_network.node[1].content_store 	decision_yes[1] 	9599
scalar tree_4_3_u02_r10_network.node[1].content_store 	decision_no[1] 	85690
scalar tree_4_3_u02_r10_network.node[1].content_store 	decision_ratio[1] 	0.10073565679144
scalar tree_4_3_u02_r10_network.node[2].core_layer 	interests[2] 	73776
scalar tree_4_3_u02_r10_network.node[2].core_layer 	data[2] 	72489
scalar tree_4_3_u02_r10_network.node[2].content_store 	p_hit[2] 	0.017444697462589
scalar tree_4_3_u02_r10_network.node[2].content_store 	hits[2] 	1287
scalar tree_4_3_u02_r10_network.node[2].content_store 	misses[2] 	72489
scalar tree_4_3_u02_r10_network.node[2].content_store 	decision_yes[2] 	7285
scalar tree_4_3_u02_r10_network.node[2].content_store 	decision_no[2] 	65203
scalar tree_4_3_u02_r10_network.node[2].content_store 	decision_ratio[2] 	0.10049939300298
scalar tree_4_3_u02_r10_network.node[3].core_layer 	interests[3] 	57885
scalar tree_4_3_u02_r10_network.node[3].core_layer 	data[3] 	55656
scalar tree_4_3_u02_r10_network.node[3].content_store 	p_hit[3] 	0.038507385332988
scalar tree_4_3_u02_r10_network.node[3].content_store 	hits[3] 	2229
scalar tree_4_3_u02_r10_network.node[3].content_store 	misses[3] 	55656
scalar tree_4_3_u02_r10_network.node[3].content_store 	decision_yes[3] 	5643
scalar tree_4_3_u02_r10_network.node[3].content_store 	decision_no[3] 	50013
scalar tree_4_3_u02_r10_network.node[3].content_store 	decision_ratio[3] 	0.10139068564036
scalar tree_4_3_u02_r10_network.node[4].core_layer 	interests[4] 	30904
scalar tree_4_3_u02_r10_network.node[4].core_layer 	data[4] 	28760
scalar tree_4_3_u02_r10_network.node[4].content_store 	p_hit[4] 	0.069311415997929
scalar tree_4_3_u02_r10_network.node[4].content_store 	hits[4] 	2142
scalar tree_4_3_u02_r10_network.node[4].content_store 	misses[4] 	28762
scalar tree_4_3_u02_r10_network.node[4].content_store 	decision_yes[4] 	2920
scalar tree_4_3_u02_r10_network.node[4].content_store 	decision_no[4] 	25840
scalar tree_4_3_u02_r10_network.node[4].content_store 	decision_ratio[4] 	0.10152990264256
scalar tree_4_3_u02_r10_network.node[5].core_layer 	interests[5] 	34219
scalar tree_4_3_u02_r10_network.node[5].core_layer 	data[5] 	30409
scalar tree_4_3_u02_r10_network.node[5].content_store 	p_hit[5] 	0.11134165229843
scalar tree_4_3_u02_r10_network.node[5].content_store 	hits[5] 	3810
scalar tree_4_3_u02_r10_network.node[5].content_store 	misses[5] 	30409
scalar tree_4_3_u02_r10_network.node[5].content_store 	decision_yes[5] 	3070
scalar tree_4_3_u02_r10_network.node[5].content_store 	decision_no[5] 	27339
scalar tree_4_3_u02_r10_network.node[5].content_store 	decision_ratio[5] 	0.10095695353349
scalar tree_4_3_u02_r10_network.node[6].core_layer 	interests[6] 	30806
scalar tree_4_3_u02_r10_network.node[6].core_layer 	data[6] 	28672
scalar tree_4_3_u02_r10_network.node[6].content_store 	p_hit[6] 	0.069239758488606
scalar tree_4_3_u02_r10_network.node[6].content_store 	hits[6] 	2133
scalar tree_4_3_u02_r10_network.node[6].content_store 	misses[6] 	28673
scalar tree_4_3_u02_r10_network.node[6].content_store 	decision_yes[6] 	2937
scalar tree_4_3_u02_r10_network.node[6].content_store 	decision_no[6] 	25735
scalar tree_4_3_u02_r10_network.node[6].content_store 	decision_ratio[6] 	0.10243443080357
scalar tree_4_3_u02_r10_network.node[7].core_layer 	interests[7] 	28565
scalar tree_4_3_u02_r10_network.node[7].core_layer 	data[7] 	26745
scalar tree_4_3_u02_r10_network.node[7].content_store 	p_hit[7] 	0.063714335725538
scalar tree_4_3_u02_r10_network.node[7].content_store 	hits[7] 	1820
scalar tree_4_3_u02_r10_network.node[7].content_store 	misses[7] 	26745
scalar tree_4_3_u02_r10_network.node[7].content_store 	decision_yes[7] 	2647
scalar tree_4_3_u02_r10_network.node[7].content_store 	decision_no[7] 	24098
scalar tree_4_3_u02_r10_network.node[7].content_store 	decision_ratio[7] 	0.098971770424378
scalar tree_4_3_u02_r10_network.node[8].core_layer 	interests[8] 	29131
scalar tree_4_3_u02_r10_network.node[8].core_layer 	data[8] 	27219
scalar tree_4_3_u02_r10_network.node[8].content_store 	p_hit[8] 	0.065634547389379
scalar tree_4_3_u02_r10_network.node[8].content_store 	hits[8] 	1912
scalar tree_4_3_u02_r10_network.node[8].content_store 	misses[8] 	27219
scalar tree_4_3_u02_r10_network.node[8].content_store 	decision_yes[8] 	2650
scalar tree_4_3_u02_r10_network.node[8].content_store 	decision_no[8] 	24569
scalar tree_4_3_u02_r10_network.node[8].content_store 	decision_ratio[8] 	0.097358462838458
scalar tree_4_3_u02_r10_network.node[9].core_layer 	interests[9] 	39358
scalar tree_4_3_u02_r10_network.node[9].core_layer 	data[9] 	34071
scalar tree_4_3_u02_r10_network.node[9].content_store 	p_hit[9] 	0.13428019716449
scalar tree_4_3_u02_r10_network.node[9].content_store 	hits[9] 	5285
scalar tree_4_3_u02_r10_network.node[9].content_store 	misses[9] 	34073
scalar tree_4_3_u02_r10_network.node[9].content_store 	decision_yes[9] 	3437
scalar tree_4_3_u02_r10_network.node[9].content_store 	decision_no[9] 	30634
scalar tree_4_3_u02_r10_network.node[9].content_store 	decision_ratio[9] 	0.1008775791729
scalar tree_4_3_u02_r10_network.node[10].core_layer 	interests[10] 	34524
scalar tree_4_3_u02_r10_network.node[10].core_layer 	data[10] 	30511
scalar tree_4_3_u02_r10_network.node[10].content_store 	p_hit[10] 	0.11623797937667
scalar tree_4_3_u02_r10_network.node[10].content_store 	hits[10] 	4013
scalar tree_4_3_u02_r10_network.node[10].content_store 	misses[10] 	30511
scalar tree_4_3_u02_r10_network.node[10].content_store 	decision_yes[10] 	2985
scalar tree_4_3_u02_r10_network.node[10].content_store 	decision_no[10] 	27525
scalar tree_4_3_u02_r10_network.node[10].content_store 	decision_ratio[10] 	0.097836774827925
scalar tree_4_3_u02_r10_network.node[11].core_layer 	interests[11] 	31243
scalar tree_4_3_u02_r10_network.node[11].core_layer 	data[11] 	29104
scalar tree_4_3_u02_r10_network.node[11].content_store 	p_hit[11] 	0.068495342956822
scalar tree_4_3_u02_r10_network.node[11].content_store 	hits[11] 	2140
scalar tree_4_3_u02_r10_network.node[11].content_store 	misses[11] 	29103
scalar tree_4_3_u02_r10_network.node[11].content_store 	decision_yes[11] 	2925
scalar tree_4_3_u02_r10_network.node[11].content_store 	decision_no[11] 	26179
scalar tree_4_3_u02_r10_network.node[11].content_store 	decision_ratio[11] 	0.10050164925783
scalar tree_4_3_u02_r10_network.node[12].core_layer 	interests[12] 	30749
scalar tree_4_3_u02_r10_network.node[12].core_layer 	data[12] 	28530
scalar tree_4_3_u02_r10_network.node[12].content_store 	p_hit[12] 	0.072164948453608
scalar tree_4_3_u02_r10_network.node[12].content_store 	hits[12] 	2219
scalar tree_4_3_u02_r10_network.node[12].content_store 	misses[12] 	28530
scalar tree_4_3_u02_r10_network.node[12].content_store 	decision_yes[12] 	2700
scalar tree_4_3_u02_r10_network.node[12].content_store 	decision_no[12] 	25829
scalar tree_4_3_u02_r10_network.node[12].content_store 	decision_ratio[12] 	0.094640541203687
scalar tree_4_3_u02_r10_network.node[13].core_layer 	interests[13] 	13198
scalar tree_4_3_u02_r10_network.node[13].core_layer 	data[13] 	9614
scalar tree_4_3_u02_r10_network.node[13].content_store 	p_hit[13] 	0.27155629640855
scalar tree_4_3_u02_r10_network.node[13].content_store 	hits[13] 	3584
scalar tree_4_3_u02_r10_network.node[13].content_store 	misses[13] 	9614
scalar tree_4_3_u02_r10_network.node[13].content_store 	decision_yes[13] 	956
scalar tree_4_3_u02_r10_network.node[13].content_store 	decision_no[13] 	8658
scalar tree_4_3_u02_r10_network.node[13].content_store 	decision_ratio[13] 	0.099438319117953
scalar tree_4_3_u02_r10_network.node[14].core_layer 	interests[14] 	13039
scalar tree_4_3_u02_r10_network.node[14].core_layer 	data[14] 	9424
scalar tree_4_3_u02_r10_network.node[14].content_store 	p_hit[14] 	0.27709180151852
scalar tree_4_3_u02_r10_network.node[14].content_store 	hits[14] 	3613
scalar tree_4_3_u02_r10_network.node[14].content_store 	misses[14] 	9426
scalar tree_4_3_u02_r10_network.node[14].content_store 	decision_yes[14] 	925
scalar tree_4_3_u02_r10_network.node[14].content_store 	decision_no[14] 	8499
scalar tree_4_3_u02_r10_network.node[14].content_store 	decision_ratio[14] 	0.098153650254669
scalar tree_4_3_u02_r10_network.node[15].core_layer 	interests[15] 	13131
scalar tree_4_3_u02_r10_network.node[15].core_layer 	data[15] 	9588
scalar tree_4_3_u02_r10_network.node[15].content_store 	p_hit[15] 	0.26974335541848
scalar tree_4_3_u02_r10_network.node[15].content_store 	hits[15] 	3542
scalar tree_4_3_u02_r10_network.node[15].content_store 	misses[15] 	9589
scalar tree_4_3_u02_r10_network.node[15].content_store 	decision_yes[15] 	987
scalar tree_4_3_u02_r10_network.node[15].content_store 	decision_no[15] 	8601
scalar tree_4_3_u02_r10_network.node[15].content_store 	decision_ratio[15] 	0.10294117647059
scalar tree_4_3_u02_r10_network.node[16].core_layer 	interests[16] 	13900
scalar tree_4_3_u02_r10_network.node[16].core_layer 	data[16] 	9811
scalar tree_4_3_u02_r10_network.node[16].content_store 	p_hit[16] 	0.29410071942446
scalar tree_4_3_u02_r10_network.node[16].content_store 	hits[16] 	4088
scalar tree_4_3_u02_r10_network.node[16].content_store 	misses[16] 	9812
scalar tree_4_3_u02_r10_network.node[16].content_store 	decision_yes[16] 	1035
scalar tree_4_3_u02_r10_network.node[16].content_store 	decision_no[16] 	8776
scalar tree_4_3_u02_r10_network.node[16].content_store 	decision_ratio[16] 	0.10549383345225
scalar tree_4_3_u02_r10_network.node[17].core_layer 	interests[17] 	13629
scalar tree_4_3_u02_r10_network.node[17].core_layer 	data[17] 	9638
scalar tree_4_3_u02_r10_network.node[17].content_store 	p_hit[17] 	0.29283146232299
scalar tree_4_3_u02_r10_network.node[17].content_store 	hits[17] 	3991
scalar tree_4_3_u02_r10_network.node[17].content_store 	misses[17] 	9638
scalar tree_4_3_u02_r10_network.node[17].content_store 	decision_yes[17] 	955
scalar tree_4_3_u02_r10_network.node[17].content_store 	decision_no[17] 	8683
scalar tree_4_3_u02_r10_network.node[17].content_store 	decision_ratio[17] 	0.099086947499481
scalar tree_4_3_u02_r10_network.node[18].core_layer 	interests[18] 	13331
scalar tree_4_3_u02_r10_network.node[18].core_layer 	data[18] 	9278
scalar tree_4_3_u02_r10_network.node[18].content_store 	p_hit[18] 	0.30402820493586
scalar tree_4_3_u02_r10_network.node[18].content_store 	hits[18] 	4053
scalar tree_4_3_u02_r10_network.node[18].content_store 	misses[18] 	9278
scalar tree_4_3_u02_r10_network.node[18].content_store 	decision_yes[18] 	891
scalar tree_4_3_u02_r10_network.node[18].content_store 	decision_no[18] 	8387
scalar tree_4_3_u02_r10_network.node[18].content_store 	decision_ratio[18] 	0.096033627937055
scalar tree_4_3_u02_r10_network.node[19].core_layer 	interests[19] 	12991
scalar tree_4_3_u02_r10_network.node[19].core_layer 	data[19] 	9471
scalar tree_4_3_u02_r10_network.node[19].content_store 	p_hit[19] 	0.27087983988915
scalar tree_4_3_u02_r10_network.node[19].content_store 	hits[19] 	3519
scalar tree_4_3_u02_r10_network.node[19].content_store 	misses[19] 	9472
scalar tree_4_3_u02_r10_network.node[19].content_store 	decision_yes[19] 	933
scalar tree_4_3_u02_r10_network.node[19].content_store 	decision_no[19] 	8538
scalar tree_4_3_u02_r10_network.node[19].content_store 	decision_ratio[19] 	0.098511244852708
scalar tree_4_3_u02_r10_network.node[20].core_layer 	interests[20] 	12991
scalar tree_4_3_u02_r10_network.node[20].core_layer 	data[20] 	9509
scalar tree_4_3_u02_r10_network.node[20].content_store 	p_hit[20] 	0.26795473789547
scalar tree_4_3_u02_r10_network.node[20].content_store 	hits[20] 	3481
scalar tree_4_3_u02_r10_network.node[20].content_store 	misses[20] 	9510
scalar tree_4_3_u02_r10_network.node[20].content_store 	decision_yes[20] 	1011
scalar tree_4_3_u02_r10_network.node[20].content_store 	decision_no[20] 	8498
scalar tree_4_3_u02_r10_network.node[20].content_store 	decision_ratio[20] 	0.10632032811021
scalar tree_4_3_u02_r10_network.node[21].core_layer 	interests[21] 	13073
scalar tree_4_3_u02_r10_network.node[21].core_layer 	data[21] 	9488
scalar tree_4_3_u02_r10_network.node[21].content_store 	p_hit[21] 	0.27422932762182
scalar tree_4_3_u02_r10_network.node[21].content_store 	hits[21] 	3585
scalar tree_4_3_u02_r10_network.node[21].content_store 	misses[21] 	9488
scalar tree_4_3_u02_r10_network.node[21].content_store 	decision_yes[21] 	927
scalar tree_4_3_u02_r10_network.node[21].content_store 	decision_no[21] 	8561
scalar tree_4_3_u02_r10_network.node[21].content_store 	decision_ratio[21] 	0.097702360876897
scalar tree_4_3_u02_r10_network.node[22].core_layer 	interests[22] 	12671
scalar tree_4_3_u02_r10_network.node[22].core_layer 	data[22] 	9392
scalar tree_4_3_u02_r10_network.node[22].content_store 	p_hit[22] 	0.25877989108989
scalar tree_4_3_u02_r10_network.node[22].content_store 	hits[22] 	3279
scalar tree_4_3_u02_r10_network.node[22].content_store 	misses[22] 	9392
scalar tree_4_3_u02_r10_network.node[22].content_store 	decision_yes[22] 	963
scalar tree_4_3_u02_r10_network.node[22].content_store 	decision_no[22] 	8429
scalar tree_4_3_u02_r10_network.node[22].content_store 	decision_ratio[22] 	0.10253407155026
scalar tree_4_3_u02_r10_network.node[23].core_layer 	interests[23] 	12867
scalar tree_4_3_u02_r10_network.node[23].core_layer 	data[23] 	9447
scalar tree_4_3_u02_r10_network.node[23].content_store 	p_hit[23] 	0.26564078650812
scalar tree_4_3_u02_r10_network.node[23].content_store 	hits[23] 	3418
scalar tree_4_3_u02_r10_network.node[23].content_store 	misses[23] 	9449
scalar tree_4_3_u02_r10_network.node[23].content_store 	decision_yes[23] 	951
scalar tree_4_3_u02_r10_network.node[23].content_store 	decision_no[23] 	8496
scalar tree_4_3_u02_r10_network.node[23].content_store 	decision_ratio[23] 	0.10066687837409
scalar tree_4_3_u02_r10_network.node[24].core_layer 	interests[24] 	14611
scalar tree_4_3_u02_r10_network.node[24].core_layer 	data[24] 	9462
scalar tree_4_3_u02_r10_network.node[24].content_store 	p_hit[24] 	0.35240572171651
scalar tree_4_3_u02_r10_network.node[24].content_store 	hits[24] 	5149
scalar tree_4_3_u02_r10_network.node[24].content_store 	misses[24] 	9462
scalar tree_4_3_u02_r10_network.node[24].content_store 	decision_yes[24] 	930
scalar tree_4_3_u02_r10_network.node[24].content_store 	decision_no[24] 	8532
scalar tree_4_3_u02_r10_network.node[24].content_store 	decision_ratio[24] 	0.098287888395688
scalar tree_4_3_u02_r10_network.node[25].core_layer 	interests[25] 	12855
scalar tree_4_3_u02_r10_network.node[25].core_layer 	data[25] 	9540
scalar tree_4_3_u02_r10_network.node[25].content_store 	p_hit[25] 	0.25787631271879
scalar tree_4_3_u02_r10_network.node[25].content_store 	hits[25] 	3315
scalar tree_4_3_u02_r10_network.node[25].content_store 	misses[25] 	9540
scalar tree_4_3_u02_r10_network.node[25].content_store 	decision_yes[25] 	997
scalar tree_4_3_u02_r10_network.node[25].content_store 	decision_no[25] 	8543
scalar tree_4_3_u02_r10_network.node[25].content_store 	decision_ratio[25] 	0.10450733752621
scalar tree_4_3_u02_r10_network.node[26].core_layer 	interests[26] 	13018
scalar tree_4_3_u02_r10_network.node[26].core_layer 	data[26] 	9801
scalar tree_4_3_u02_r10_network.node[26].content_store 	p_hit[26] 	0.2471193731756
scalar tree_4_3_u02_r10_network.node[26].content_store 	hits[26] 	3217
scalar tree_4_3_u02_r10_network.node[26].content_store 	misses[26] 	9801
scalar tree_4_3_u02_r10_network.node[26].content_store 	decision_yes[26] 	977
scalar tree_4_3_u02_r10_network.node[26].content_store 	decision_no[26] 	8824
scalar tree_4_3_u02_r10_network.node[26].content_store 	decision_ratio[26] 	0.099683705744312
scalar tree_4_3_u02_r10_network.node[27].core_layer 	interests[27] 	14468
scalar tree_4_3_u02_r10_network.node[27].core_layer 	data[27] 	9650
scalar tree_4_3_u02_r10_network.node[27].content_store 	p_hit[27] 	0.33301078241637
scalar tree_4_3_u02_r10_network.node[27].content_store 	hits[27] 	4818
scalar tree_4_3_u02_r10_network.node[27].content_store 	misses[27] 	9650
scalar tree_4_3_u02_r10_network.node[27].content_store 	decision_yes[27] 	992
scalar tree_4_3_u02_r10_network.node[27].content_store 	decision_no[27] 	8658
scalar tree_4_3_u02_r10_network.node[27].content_store 	decision_ratio[27] 	0.10279792746114
scalar tree_4_3_u02_r10_network.node[28].core_layer 	interests[28] 	13794
scalar tree_4_3_u02_r10_network.node[28].core_layer 	data[28] 	9622
scalar tree_4_3_u02_r10_network.node[28].content_store 	p_hit[28] 	0.30245034072785
scalar tree_4_3_u02_r10_network.node[28].content_store 	hits[28] 	4172
scalar tree_4_3_u02_r10_network.node[28].content_store 	misses[28] 	9622
scalar tree_4_3_u02_r10_network.node[28].content_store 	decision_yes[28] 	926
scalar tree_4_3_u02_r10_network.node[28].content_store 	decision_no[28] 	8696
scalar tree_4_3_u02_r10_network.node[28].content_store 	decision_ratio[28] 	0.09623778840158
scalar tree_4_3_u02_r10_network.node[29].core_layer 	interests[29] 	13673
scalar tree_4_3_u02_r10_network.node[29].core_layer 	data[29] 	9548
scalar tree_4_3_u02_r10_network.node[29].content_store 	p_hit[29] 	0.30161632414247
scalar tree_4_3_u02_r10_network.node[29].content_store 	hits[29] 	4124
scalar tree_4_3_u02_r10_network.node[29].content_store 	misses[29] 	9549
scalar tree_4_3_u02_r10_network.node[29].content_store 	decision_yes[29] 	936
scalar tree_4_3_u02_r10_network.node[29].content_store 	decision_no[29] 	8612
scalar tree_4_3_u02_r10_network.node[29].content_store 	decision_ratio[29] 	0.098031001256808
scalar tree_4_3_u02_r10_network.node[30].core_layer 	interests[30] 	13799
scalar tree_4_3_u02_r10_network.node[30].core_layer 	data[30] 	9652
scalar tree_4_3_u02_r10_network.node[30].content_store 	p_hit[30] 	0.30038408580332
scalar tree_4_3_u02_r10_network.node[30].content_store 	hits[30] 	4145
scalar tree_4_3_u02_r10_network.node[30].content_store 	misses[30] 	9654
scalar tree_4_3_u02_r10_network.node[30].content_store 	decision_yes[30] 	939
scalar tree_4_3_u02_r10_network.node[30].content_store 	decision_no[30] 	8713
scalar tree_4_3_u02_r10_network.node[30].content_store 	decision_ratio[30] 	0.097285536676337
scalar tree_4_3_u02_r10_network.node[31].core_layer 	interests[31] 	13738
scalar tree_4_3_u02_r10_network.node[31].core_layer 	data[31] 	9448
scalar tree_4_3_u02_r10_network.node[31].content_store 	p_hit[31] 	0.31227252875237
scalar tree_4_3_u02_r10_network.node[31].content_store 	hits[31] 	4290
scalar tree_4_3_u02_r10_network.node[31].content_store 	misses[31] 	9448
scalar tree_4_3_u02_r10_network.node[31].content_store 	decision_yes[31] 	921
scalar tree_4_3_u02_r10_network.node[31].content_store 	decision_no[31] 	8527
scalar tree_4_3_u02_r10_network.node[31].content_store 	decision_ratio[31] 	0.097480948348857
scalar tree_4_3_u02_r10_network.node[32].core_layer 	interests[32] 	13441
scalar tree_4_3_u02_r10_network.node[32].core_layer 	data[32] 	9561
scalar tree_4_3_u02_r10_network.node[32].content_store 	p_hit[32] 	0.28866899784242
scalar tree_4_3_u02_r10_network.node[32].content_store 	hits[32] 	3880
scalar tree_4_3_u02_r10_network.node[32].content_store 	misses[32] 	9561
scalar tree_4_3_u02_r10_network.node[32].content_store 	decision_yes[32] 	959
scalar tree_4_3_u02_r10_network.node[32].content_store 	decision_no[32] 	8602
scalar tree_4_3_u02_r10_network.node[32].content_store 	decision_ratio[32] 	0.10030331555277
scalar tree_4_3_u02_r10_network.node[33].core_layer 	interests[33] 	13623
scalar tree_4_3_u02_r10_network.node[33].core_layer 	data[33] 	9458
scalar tree_4_3_u02_r10_network.node[33].content_store 	p_hit[33] 	0.30573295162593
scalar tree_4_3_u02_r10_network.node[33].content_store 	hits[33] 	4165
scalar tree_4_3_u02_r10_network.node[33].content_store 	misses[33] 	9458
scalar tree_4_3_u02_r10_network.node[33].content_store 	decision_yes[33] 	978
scalar tree_4_3_u02_r10_network.node[33].content_store 	decision_no[33] 	8480
scalar tree_4_3_u02_r10_network.node[33].content_store 	decision_ratio[33] 	0.10340452526961
scalar tree_4_3_u02_r10_network.node[34].core_layer 	interests[34] 	13254
scalar tree_4_3_u02_r10_network.node[34].core_layer 	data[34] 	9714
scalar tree_4_3_u02_r10_network.node[34].content_store 	p_hit[34] 	0.2671646295458
scalar tree_4_3_u02_r10_network.node[34].content_store 	hits[34] 	3541
scalar tree_4_3_u02_r10_network.node[34].content_store 	misses[34] 	9713
scalar tree_4_3_u02_r10_network.node[34].content_store 	decision_yes[34] 	965
scalar tree_4_3_u02_r10_network.node[34].content_store 	decision_no[34] 	8749
scalar tree_4_3_u02_r10_network.node[34].content_store 	decision_ratio[34] 	0.099341157092856
scalar tree_4_3_u02_r10_network.node[35].core_layer 	interests[35] 	13148
scalar tree_4_3_u02_r10_network.node[35].core_layer 	data[35] 	9643
scalar tree_4_3_u02_r10_network.node[35].content_store 	p_hit[35] 	0.26658046851232
scalar tree_4_3_u02_r10_network.node[35].content_store 	hits[35] 	3505
scalar tree_4_3_u02_r10_network.node[35].content_store 	misses[35] 	9643
scalar tree_4_3_u02_r10_network.node[35].content_store 	decision_yes[35] 	954
scalar tree_4_3_u02_r10_network.node[35].content_store 	decision_no[35] 	8689
scalar tree_4_3_u02_r10_network.node[35].content_store 	decision_ratio[35] 	0.098931867676034
scalar tree_4_3_u02_r10_network.node[36].core_layer 	interests[36] 	13083
scalar tree_4_3_u02_r10_network.node[36].core_layer 	data[36] 	9558
scalar tree_4_3_u02_r10_network.node[36].content_store 	p_hit[36] 	0.26943361614309
scalar tree_4_3_u02_r10_network.node[36].content_store 	hits[36] 	3525
scalar tree_4_3_u02_r10_network.node[36].content_store 	misses[36] 	9558
scalar tree_4_3_u02_r10_network.node[36].content_store 	decision_yes[36] 	967
scalar tree_4_3_u02_r10_network.node[36].content_store 	decision_no[36] 	8591
scalar tree_4_3_u02_r10_network.node[36].content_store 	decision_ratio[36] 	0.10117179326219
scalar tree_4_3_u02_r10_network.node[37].core_layer 	interests[37] 	12996
scalar tree_4_3_u02_r10_network.node[37].core_layer 	data[37] 	9521
scalar tree_4_3_u02_r10_network.node[37].content_store 	p_hit[37] 	0.26738996614343
scalar tree_4_3_u02_r10_network.node[37].content_store 	hits[37] 	3475
scalar tree_4_3_u02_r10_network.node[37].content_store 	misses[37] 	9521
scalar tree_4_3_u02_r10_network.node[37].content_store 	decision_yes[37] 	965
scalar tree_4_3_u02_r10_network.node[37].content_store 	decision_no[37] 	8556
scalar tree_4_3_u02_r10_network.node[37].content_store 	decision_ratio[37] 	0.10135489969541
scalar tree_4_3_u02_r10_network.node[38].core_layer 	interests[38] 	12989
scalar tree_4_3_u02_r10_network.node[38].core_layer 	data[38] 	9326
scalar tree_4_3_u02_r10_network.node[38].content_store 	p_hit[38] 	0.28193086457772
scalar tree_4_3_u02_r10_network.node[38].content_store 	hits[38] 	3662
scalar tree_4_3_u02_r10_network.node[38].content_store 	misses[38] 	9327
scalar tree_4_3_u02_r10_network.node[38].content_store 	decision_yes[38] 	941
scalar tree_4_3_u02_r10_network.node[38].content_store 	decision_no[38] 	8385
scalar tree_4_3_u02_r10_network.node[38].content_store 	decision_ratio[38] 	0.10090070769891
scalar tree_4_3_u02_r10_network.node[39].core_layer 	interests[39] 	13066
scalar tree_4_3_u02_r10_network.node[39].core_layer 	data[39] 	9433
scalar tree_4_3_u02_r10_network.node[39].content_store 	p_hit[39] 	0.27804990050513
scalar tree_4_3_u02_r10_network.node[39].content_store 	hits[39] 	3633
scalar tree_4_3_u02_r10_network.node[39].content_store 	misses[39] 	9433
scalar tree_4_3_u02_r10_network.node[39].content_store 	decision_yes[39] 	919
scalar tree_4_3_u02_r10_network.node[39].content_store 	decision_no[39] 	8514
scalar tree_4_3_u02_r10_network.node[39].content_store 	decision_ratio[39] 	0.097423937241599
scalar tree_4_3_u02_r10_network.client[13] 	hdistance[13] 	2.9058687767887
scalar tree_4_3_u02_r10_network.client[13] 	downloads[13] 	12132
scalar tree_4_3_u02_r10_network.client[13] 	avg_time[13] 	0.004597754982
scalar tree_4_3_u02_r10_network.client[14] 	hdistance[14] 	2.903761154199
scalar tree_4_3_u02_r10_network.client[14] 	downloads[14] 	11991
scalar tree_4_3_u02_r10_network.client[14] 	avg_time[14] 	0.004587091611
scalar tree_4_3_u02_r10_network.client[15] 	hdistance[15] 	2.9005602240896
scalar tree_4_3_u02_r10_network.client[15] 	downloads[15] 	12138
scalar tree_4_3_u02_r10_network.client[15] 	avg_time[15] 	0.004594164041
scalar tree_4_3_u02_r10_network.client[16] 	hdistance[16] 	2.900646005397
scalar tree_4_3_u02_r10_network.client[16] 	downloads[16] 	12229
scalar tree_4_3_u02_r10_network.client[16] 	avg_time[16] 	0.004667148967
scalar tree_4_3_u02_r10_network.client[17] 	hdistance[17] 	2.8817955112219
scalar tree_4_3_u02_r10_network.client[17] 	downloads[17] 	12030
scalar tree_4_3_u02_r10_network.client[17] 	avg_time[17] 	0.004630587195
scalar tree_4_3_u02_r10_network.client[18] 	hdistance[18] 	2.8509967626512
scalar tree_4_3_u02_r10_network.client[18] 	downloads[18] 	11738
scalar tree_4_3_u02_r10_network.client[18] 	avg_time[18] 	0.004586660782
scalar tree_4_3_u02_r10_network.client[19] 	hdistance[19] 	2.9213067943227
scalar tree_4_3_u02_r10_network.client[19] 	downloads[19] 	11907
scalar tree_4_3_u02_r10_network.client[19] 	avg_time[19] 	0.004623118446
scalar tree_4_3_u02_r10_network.client[20] 	hdistance[20] 	2.9131486734523
scalar tree_4_3_u02_r10_network.client[20] 	downloads[20] 	11986
scalar tree_4_3_u02_r10_network.client[20] 	avg_time[20] 	0.004612003702
scalar tree_4_3_u02_r10_network.client[21] 	hdistance[21] 	2.9157965082282
scalar tree_4_3_u02_r10_network.client[21] 	downloads[21] 	11971
scalar tree_4_3_u02_r10_network.client[21] 	avg_time[21] 	0.004610305254
scalar tree_4_3_u02_r10_network.client[22] 	hdistance[22] 	2.9193112761647
scalar tree_4_3_u02_r10_network.client[22] 	downloads[22] 	11848
scalar tree_4_3_u02_r10_network.client[22] 	avg_time[22] 	0.004626938288
scalar tree_4_3_u02_r10_network.client[23] 	hdistance[23] 	2.89745939192
scalar tree_4_3_u02_r10_network.client[23] 	downloads[23] 	12005
scalar tree_4_3_u02_r10_network.client[23] 	avg_time[23] 	0.004597282177
scalar tree_4_3_u02_r10_network.client[24] 	hdistance[24] 	2.7468248663102
scalar tree_4_3_u02_r10_network.client[24] 	downloads[24] 	11968
scalar tree_4_3_u02_r10_network.client[24] 	avg_time[24] 	0.004372156088
scalar tree_4_3_u02_r10_network.client[25] 	hdistance[25] 	2.9288096032011
scalar tree_4_3_u02_r10_network.client[25] 	downloads[25] 	11996
scalar tree_4_3_u02_r10_network.client[25] 	avg_time[25] 	0.004638376466
scalar tree_4_3_u02_r10_network.client[26] 	hdistance[26] 	2.9489218660326
scalar tree_4_3_u02_r10_network.client[26] 	downloads[26] 	12197
scalar tree_4_3_u02_r10_network.client[26] 	avg_time[26] 	0.004681148058
scalar tree_4_3_u02_r10_network.client[27] 	hdistance[27] 	2.7738036098692
scalar tree_4_3_u02_r10_network.client[27] 	downloads[27] 	12078
scalar tree_4_3_u02_r10_network.client[27] 	avg_time[27] 	0.004423577045
scalar tree_4_3_u02_r10_network.client[28] 	hdistance[28] 	2.8203163618388
scalar tree_4_3_u02_r10_network.client[28] 	downloads[28] 	12138
scalar tree_4_3_u02_r10_network.client[28] 	avg_time[28] 	0.004513425862
scalar tree_4_3_u02_r10_network.client[29] 	hdistance[29] 	2.8192048012003
scalar tree_4_3_u02_r10_network.client[29] 	downloads[29] 	11997
scalar tree_4_3_u02_r10_network.client[29] 	avg_time[29] 	0.004506868899
scalar tree_4_3_u02_r10_network.client[30] 	hdistance[30] 	2.8315212880737
scalar tree_4_3_u02_r10_network.client[30] 	downloads[30] 	12049
scalar tree_4_3_u02_r10_network.client[30] 	avg_time[30] 	0.004537302957
scalar tree_4_3_u02_r10_network.client[31] 	hdistance[31] 	2.8688853583075
scalar tree_4_3_u02_r10_network.client[31] 	downloads[31] 	11959
scalar tree_4_3_u02_r10_network.client[31] 	avg_time[31] 	0.004615600335
scalar tree_4_3_u02_r10_network.client[32] 	hdistance[32] 	2.9110773643803
scalar tree_4_3_u02_r10_network.client[32] 	downloads[32] 	11853
scalar tree_4_3_u02_r10_network.client[32] 	avg_time[32] 	0.00468336835
scalar tree_4_3_u02_r10_network.client[33] 	hdistance[33] 	2.8449941695819
scalar tree_4_3_u02_r10_network.client[33] 	downloads[33] 	12006
scalar tree_4_3_u02_r10_network.client[33] 	avg_time[33] 	0.00458470467
scalar tree_4_3_u02_r10_network.client[34] 	hdistance[34] 	2.9126245304589
scalar tree_4_3_u02_r10_network.client[34] 	downloads[34] 	12246
scalar tree_4_3_u02_r10_network.client[34] 	avg_time[34] 	0.004633673237
scalar tree_4_3_u02_r10_network.client[35] 	hdistance[35] 	2.9101707498144
scalar tree_4_3_u02_r10_network.client[35] 	downloads[35] 	12123
scalar tree_4_3_u02_r10_network.client[35] 	avg_time[35] 	0.00462574964
scalar tree_4_3_u02_r10_network.client[36] 	hdistance[36] 	2.9144296687867
scalar tree_4_3_u02_r10_network.client[36] 	downloads[36] 	12107
scalar tree_4_3_u02_r10_network.client[36] 	avg_time[36] 	0.004623768329
scalar tree_4_3_u02_r10_network.client[37] 	hdistance[37] 	2.9081360453485
scalar tree_4_3_u02_r10_network.client[37] 	downloads[37] 	11996
scalar tree_4_3_u02_r10_network.client[37] 	avg_time[37] 	0.004622690981
scalar tree_4_3_u02_r10_network.client[38] 	hdistance[38] 	2.867533557047
scalar tree_4_3_u02_r10_network.client[38] 	downloads[38] 	11920
scalar tree_4_3_u02_r10_network.client[38] 	avg_time[38] 	0.004560742686
scalar tree_4_3_u02_r10_network.client[39] 	hdistance[39] 	2.8882402001668
scalar tree_4_3_u02_r10_network.client[39] 	downloads[39] 	11990
scalar tree_4_3_u02_r10_network.client[39] 	avg_time[39] 	0.004587152969
