version 2
run General-22-20160826-10:20:14-19693
attr D ffc
attr F nrr
attr R lru
attr a 0.9
attr configname General
attr datetime 20160826-10:20:14
attr experiment General
attr inifile hw5115/scenario_C/omnetp.ini
attr iterationvars "$net=tiger, $rep=3, $a=0.9, $F=nrr, $D=ffc, $R=lru, $window=60, $variance=0.05, $mytime=600"
attr iterationvars2 "$net=tiger, $rep=3, $a=0.9, $F=nrr, $D=ffc, $R=lru, $window=60, $variance=0.05, $mytime=600, $repetition=0"
attr measurement "$net=tiger, $rep=3, $a=0.9, $F=nrr, $D=ffc, $R=lru, $window=60, $variance=0.05, $mytime=600"
attr mytime 600
attr net tiger
attr network networks.${net=tiger}_network
attr processid 19693
attr rep 3
attr repetition 0
attr replication #0
attr resultdir results
attr runnumber 22
attr seedset 3
attr variance 0.05
attr window 60

scalar . 	a 	0.9
scalar . 	mytime 	600
scalar . 	rep 	3
scalar . 	variance 	0.05
scalar . 	window 	60
scalar tiger_network.content_distribution 	repo-0 	9
scalar tiger_network.content_distribution 	repo-1 	4
scalar tiger_network.content_distribution 	repo-2 	15
scalar tiger_network.content_distribution 	repo-3 	0
scalar tiger_network.content_distribution 	repo-4 	17
scalar tiger_network.content_distribution 	repo-5 	16
scalar tiger_network.content_distribution 	repo-6 	8
scalar tiger_network.content_distribution 	repo-7 	10
scalar tiger_network.content_distribution 	repo-8 	19
scalar tiger_network.content_distribution 	repo-9 	11
scalar tiger_network.content_distribution 	repo-10 	1
scalar tiger_network.content_distribution 	repo-11 	14
scalar tiger_network.content_distribution 	repo-12 	13
scalar tiger_network.content_distribution 	repo-13 	5
scalar tiger_network.content_distribution 	repo-14 	12
scalar tiger_network.content_distribution 	repo-15 	18
scalar tiger_network.content_distribution 	client-0 	21
scalar tiger_network.content_distribution 	client-1 	9
scalar tiger_network.content_distribution 	client-2 	6
scalar tiger_network.content_distribution 	client-3 	2
scalar tiger_network.content_distribution 	client-4 	14
scalar tiger_network.content_distribution 	client-5 	8
scalar tiger_network.content_distribution 	client-6 	17
scalar tiger_network.content_distribution 	client-7 	0
scalar tiger_network.content_distribution 	client-8 	19
scalar tiger_network.content_distribution 	client-9 	10
scalar tiger_network.content_distribution 	client-10 	13
scalar tiger_network.content_distribution 	client-11 	1
scalar tiger_network.content_distribution 	client-12 	3
scalar tiger_network.content_distribution 	client-13 	18
scalar tiger_network.content_distribution 	client-14 	15
scalar tiger_network.content_distribution 	client-15 	16
scalar tiger_network.content_distribution 	client-16 	12
scalar tiger_network.content_distribution 	client-17 	11
scalar tiger_network.content_distribution 	client-18 	7
scalar tiger_network.content_distribution 	client-19 	4
scalar tiger_network.content_distribution 	client-20 	5
scalar tiger_network.content_distribution 	client-21 	20
scalar tiger_network.content_distribution 	repo-0_card 	6259
scalar tiger_network.content_distribution 	repo-0_price 	0
scalar tiger_network.content_distribution 	repo-1_card 	6295
scalar tiger_network.content_distribution 	repo-1_price 	0
scalar tiger_network.content_distribution 	repo-2_card 	6227
scalar tiger_network.content_distribution 	repo-2_price 	0
scalar tiger_network.content_distribution 	repo-3_card 	6346
scalar tiger_network.content_distribution 	repo-3_price 	0
scalar tiger_network.content_distribution 	repo-4_card 	6235
scalar tiger_network.content_distribution 	repo-4_price 	0
scalar tiger_network.content_distribution 	repo-5_card 	6255
scalar tiger_network.content_distribution 	repo-5_price 	0
scalar tiger_network.content_distribution 	repo-6_card 	6210
scalar tiger_network.content_distribution 	repo-6_price 	0
scalar tiger_network.content_distribution 	repo-7_card 	6205
scalar tiger_network.content_distribution 	repo-7_price 	0
scalar tiger_network.content_distribution 	repo-8_card 	6107
scalar tiger_network.content_distribution 	repo-8_price 	0
scalar tiger_network.content_distribution 	repo-9_card 	6254
scalar tiger_network.content_distribution 	repo-9_price 	0
scalar tiger_network.content_distribution 	repo-10_card 	6251
scalar tiger_network.content_distribution 	repo-10_price 	0
scalar tiger_network.content_distribution 	repo-11_card 	6302
scalar tiger_network.content_distribution 	repo-11_price 	0
scalar tiger_network.content_distribution 	repo-12_card 	6401
scalar tiger_network.content_distribution 	repo-12_price 	0
scalar tiger_network.content_distribution 	repo-13_card 	6212
scalar tiger_network.content_distribution 	repo-13_price 	0
scalar tiger_network.content_distribution 	repo-14_card 	6236
scalar tiger_network.content_distribution 	repo-14_price 	0
scalar tiger_network.content_distribution 	repo-15_card 	6205
scalar tiger_network.content_distribution 	repo-15_price 	0
scalar tiger_network.statistics 	stabilization_time 	595.8
scalar tiger_network.statistics 	p_hit 	0.16680820921786
scalar tiger_network.statistics 	interests 	33656.727272727
scalar tiger_network.statistics 	data 	21632.409090909
scalar tiger_network.statistics 	hdistance 	2.3712370125527
scalar tiger_network.statistics 	avg_time 	0.000664864134
scalar tiger_network.statistics 	downloads 	264525
scalar tiger_network.statistics 	total_cost 	0
scalar tiger_network.statistics 	total_replicas 	100000
scalar tiger_network.statistics 	inner_hit 	0.42768358378225
scalar tiger_network.node[0].core_layer 	interests[0] 	45952
scalar tiger_network.node[0].core_layer 	repo_load[0] 	9819
scalar tiger_network.node[0].core_layer 	data[0] 	30958
scalar tiger_network.node[0].core_layer 	repo_int[0] 	151392
scalar tiger_network.node[0].content_store 	p_hit[0] 	0.11259575208914
scalar tiger_network.node[0].content_store 	hits[0] 	5174
scalar tiger_network.node[0].content_store 	misses[0] 	40778
scalar tiger_network.node[0].content_store 	decision_yes[0] 	555
scalar tiger_network.node[0].content_store 	decision_no[0] 	40222
scalar tiger_network.node[0].content_store 	decision_ratio[0] 	0.013610613826422
scalar tiger_network.node[1].core_layer 	interests[1] 	46467
scalar tiger_network.node[1].core_layer 	repo_load[1] 	9455
scalar tiger_network.node[1].core_layer 	data[1] 	31958
scalar tiger_network.node[1].content_store 	p_hit[1] 	0.10874383971421
scalar tiger_network.node[1].content_store 	hits[1] 	5053
scalar tiger_network.node[1].content_store 	misses[1] 	41414
scalar tiger_network.node[1].content_store 	decision_yes[1] 	547
scalar tiger_network.node[1].content_store 	decision_no[1] 	40866
scalar tiger_network.node[1].content_store 	decision_ratio[1] 	0.013208412817231
scalar tiger_network.node[2].core_layer 	interests[2] 	52605
scalar tiger_network.node[2].core_layer 	data[2] 	47165
scalar tiger_network.node[2].content_store 	p_hit[2] 	0.10337420397301
scalar tiger_network.node[2].content_store 	hits[2] 	5438
scalar tiger_network.node[2].content_store 	misses[2] 	47167
scalar tiger_network.node[2].content_store 	decision_yes[2] 	480
scalar tiger_network.node[2].content_store 	decision_no[2] 	46685
scalar tiger_network.node[2].content_store 	decision_ratio[2] 	0.010177038057882
scalar tiger_network.node[3].core_layer 	interests[3] 	47138
scalar tiger_network.node[3].core_layer 	data[3] 	42082
scalar tiger_network.node[3].content_store 	p_hit[3] 	0.10723832152404
scalar tiger_network.node[3].content_store 	hits[3] 	5055
scalar tiger_network.node[3].content_store 	misses[3] 	42083
scalar tiger_network.node[3].content_store 	decision_yes[3] 	434
scalar tiger_network.node[3].content_store 	decision_no[3] 	41648
scalar tiger_network.node[3].content_store 	decision_ratio[3] 	0.010313198041918
scalar tiger_network.node[4].core_layer 	interests[4] 	37368
scalar tiger_network.node[4].core_layer 	repo_load[4] 	9403
scalar tiger_network.node[4].core_layer 	data[4] 	22881
scalar tiger_network.node[4].content_store 	p_hit[4] 	0.13605223720831
scalar tiger_network.node[4].content_store 	hits[4] 	5084
scalar tiger_network.node[4].content_store 	misses[4] 	32284
scalar tiger_network.node[4].content_store 	decision_yes[4] 	446
scalar tiger_network.node[4].content_store 	decision_no[4] 	31838
scalar tiger_network.node[4].content_store 	decision_ratio[4] 	0.013814892826168
scalar tiger_network.node[5].core_layer 	interests[5] 	23904
scalar tiger_network.node[5].core_layer 	repo_load[5] 	8857
scalar tiger_network.node[5].core_layer 	data[5] 	9888
scalar tiger_network.node[5].content_store 	p_hit[5] 	0.21582161981258
scalar tiger_network.node[5].content_store 	hits[5] 	5159
scalar tiger_network.node[5].content_store 	misses[5] 	18745
scalar tiger_network.node[5].content_store 	decision_yes[5] 	417
scalar tiger_network.node[5].content_store 	decision_no[5] 	18328
scalar tiger_network.node[5].content_store 	decision_ratio[5] 	0.0222459322486
scalar tiger_network.node[6].core_layer 	interests[6] 	25819
scalar tiger_network.node[6].core_layer 	data[6] 	20525
scalar tiger_network.node[6].content_store 	p_hit[6] 	0.2050427979395
scalar tiger_network.node[6].content_store 	hits[6] 	5294
scalar tiger_network.node[6].content_store 	misses[6] 	20525
scalar tiger_network.node[6].content_store 	decision_yes[6] 	324
scalar tiger_network.node[6].content_store 	decision_no[6] 	20201
scalar tiger_network.node[6].content_store 	decision_ratio[6] 	0.0157856272838
scalar tiger_network.node[7].core_layer 	interests[7] 	27394
scalar tiger_network.node[7].core_layer 	data[7] 	22373
scalar tiger_network.node[7].content_store 	p_hit[7] 	0.18328831130905
scalar tiger_network.node[7].content_store 	hits[7] 	5021
scalar tiger_network.node[7].content_store 	misses[7] 	22373
scalar tiger_network.node[7].content_store 	decision_yes[7] 	399
scalar tiger_network.node[7].content_store 	decision_no[7] 	21974
scalar tiger_network.node[7].content_store 	decision_ratio[7] 	0.017833996334868
scalar tiger_network.node[8].core_layer 	interests[8] 	42112
scalar tiger_network.node[8].core_layer 	repo_load[8] 	9695
scalar tiger_network.node[8].core_layer 	data[8] 	27328
scalar tiger_network.node[8].content_store 	p_hit[8] 	0.12082066869301
scalar tiger_network.node[8].content_store 	hits[8] 	5088
scalar tiger_network.node[8].content_store 	misses[8] 	37024
scalar tiger_network.node[8].content_store 	decision_yes[8] 	597
scalar tiger_network.node[8].content_store 	decision_no[8] 	36426
scalar tiger_network.node[8].content_store 	decision_ratio[8] 	0.016125111417227
scalar tiger_network.node[9].core_layer 	interests[9] 	24145
scalar tiger_network.node[9].core_layer 	repo_load[9] 	9369
scalar tiger_network.node[9].core_layer 	data[9] 	9923
scalar tiger_network.node[9].content_store 	p_hit[9] 	0.20095257817353
scalar tiger_network.node[9].content_store 	hits[9] 	4852
scalar tiger_network.node[9].content_store 	misses[9] 	19293
scalar tiger_network.node[9].content_store 	decision_yes[9] 	467
scalar tiger_network.node[9].content_store 	decision_no[9] 	18825
scalar tiger_network.node[9].content_store 	decision_ratio[9] 	0.024206925150321
scalar tiger_network.node[10].core_layer 	interests[10] 	29673
scalar tiger_network.node[10].core_layer 	repo_load[10] 	9649
scalar tiger_network.node[10].core_layer 	data[10] 	15091
scalar tiger_network.node[10].content_store 	p_hit[10] 	0.16624540828362
scalar tiger_network.node[10].content_store 	hits[10] 	4933
scalar tiger_network.node[10].content_store 	misses[10] 	24740
scalar tiger_network.node[10].content_store 	decision_yes[10] 	498
scalar tiger_network.node[10].content_store 	decision_no[10] 	24242
scalar tiger_network.node[10].content_store 	decision_ratio[10] 	0.020129345189976
scalar tiger_network.node[11].core_layer 	interests[11] 	31130
scalar tiger_network.node[11].core_layer 	repo_load[11] 	9966
scalar tiger_network.node[11].core_layer 	data[11] 	16167
scalar tiger_network.node[11].content_store 	p_hit[11] 	0.16052039832959
scalar tiger_network.node[11].content_store 	hits[11] 	4997
scalar tiger_network.node[11].content_store 	misses[11] 	26133
scalar tiger_network.node[11].content_store 	decision_yes[11] 	481
scalar tiger_network.node[11].content_store 	decision_no[11] 	25652
scalar tiger_network.node[11].content_store 	decision_ratio[11] 	0.018405847013355
scalar tiger_network.node[12].core_layer 	interests[12] 	39380
scalar tiger_network.node[12].core_layer 	repo_load[12] 	9702
scalar tiger_network.node[12].core_layer 	data[12] 	24118
scalar tiger_network.node[12].content_store 	p_hit[12] 	0.14118842051803
scalar tiger_network.node[12].content_store 	hits[12] 	5560
scalar tiger_network.node[12].content_store 	misses[12] 	33820
scalar tiger_network.node[12].content_store 	decision_yes[12] 	533
scalar tiger_network.node[12].content_store 	decision_no[12] 	33287
scalar tiger_network.node[12].content_store 	decision_ratio[12] 	0.015759905381431
scalar tiger_network.node[13].core_layer 	interests[13] 	27477
scalar tiger_network.node[13].core_layer 	repo_load[13] 	9292
scalar tiger_network.node[13].core_layer 	data[13] 	13136
scalar tiger_network.node[13].content_store 	p_hit[13] 	0.1837536849001
scalar tiger_network.node[13].content_store 	hits[13] 	5049
scalar tiger_network.node[13].content_store 	misses[13] 	22428
scalar tiger_network.node[13].content_store 	decision_yes[13] 	370
scalar tiger_network.node[13].content_store 	decision_no[13] 	22058
scalar tiger_network.node[13].content_store 	decision_ratio[13] 	0.016497235598359
scalar tiger_network.node[14].core_layer 	interests[14] 	25109
scalar tiger_network.node[14].core_layer 	repo_load[14] 	9023
scalar tiger_network.node[14].core_layer 	data[14] 	11111
scalar tiger_network.node[14].content_store 	p_hit[14] 	0.19813612648851
scalar tiger_network.node[14].content_store 	hits[14] 	4975
scalar tiger_network.node[14].content_store 	misses[14] 	20134
scalar tiger_network.node[14].content_store 	decision_yes[14] 	377
scalar tiger_network.node[14].content_store 	decision_no[14] 	19757
scalar tiger_network.node[14].content_store 	decision_ratio[14] 	0.01872454554485
scalar tiger_network.node[15].core_layer 	interests[15] 	26600
scalar tiger_network.node[15].core_layer 	repo_load[15] 	9542
scalar tiger_network.node[15].core_layer 	data[15] 	12376
scalar tiger_network.node[15].content_store 	p_hit[15] 	0.17597744360902
scalar tiger_network.node[15].content_store 	hits[15] 	4681
scalar tiger_network.node[15].content_store 	misses[15] 	21919
scalar tiger_network.node[15].content_store 	decision_yes[15] 	475
scalar tiger_network.node[15].content_store 	decision_no[15] 	21443
scalar tiger_network.node[15].content_store 	decision_ratio[15] 	0.021671685372753
scalar tiger_network.node[16].core_layer 	interests[16] 	30741
scalar tiger_network.node[16].core_layer 	repo_load[16] 	9413
scalar tiger_network.node[16].core_layer 	data[16] 	16007
scalar tiger_network.node[16].content_store 	p_hit[16] 	0.1730913112781
scalar tiger_network.node[16].content_store 	hits[16] 	5321
scalar tiger_network.node[16].content_store 	misses[16] 	25420
scalar tiger_network.node[16].content_store 	decision_yes[16] 	526
scalar tiger_network.node[16].content_store 	decision_no[16] 	24894
scalar tiger_network.node[16].content_store 	decision_ratio[16] 	0.020692368214005
scalar tiger_network.node[17].core_layer 	interests[17] 	43288
scalar tiger_network.node[17].core_layer 	repo_load[17] 	9537
scalar tiger_network.node[17].core_layer 	data[17] 	28429
scalar tiger_network.node[17].content_store 	p_hit[17] 	0.12294400295694
scalar tiger_network.node[17].content_store 	hits[17] 	5322
scalar tiger_network.node[17].content_store 	misses[17] 	37966
scalar tiger_network.node[17].content_store 	decision_yes[17] 	483
scalar tiger_network.node[17].content_store 	decision_no[17] 	37483
scalar tiger_network.node[17].content_store 	decision_ratio[17] 	0.012721909076542
scalar tiger_network.node[18].core_layer 	interests[18] 	46876
scalar tiger_network.node[18].core_layer 	repo_load[18] 	9422
scalar tiger_network.node[18].core_layer 	data[18] 	32275
scalar tiger_network.node[18].content_store 	p_hit[18] 	0.11048297636317
scalar tiger_network.node[18].content_store 	hits[18] 	5179
scalar tiger_network.node[18].content_store 	misses[18] 	41697
scalar tiger_network.node[18].content_store 	decision_yes[18] 	521
scalar tiger_network.node[18].content_store 	decision_no[18] 	41176
scalar tiger_network.node[18].content_store 	decision_ratio[18] 	0.012494903710099
scalar tiger_network.node[19].core_layer 	interests[19] 	29265
scalar tiger_network.node[19].core_layer 	repo_load[19] 	9248
scalar tiger_network.node[19].core_layer 	data[19] 	14793
scalar tiger_network.node[19].content_store 	p_hit[19] 	0.17850674867589
scalar tiger_network.node[19].content_store 	hits[19] 	5224
scalar tiger_network.node[19].content_store 	misses[19] 	24041
scalar tiger_network.node[19].content_store 	decision_yes[19] 	508
scalar tiger_network.node[19].content_store 	decision_no[19] 	23533
scalar tiger_network.node[19].content_store 	decision_ratio[19] 	0.021130568611955
scalar tiger_network.node[20].core_layer 	interests[20] 	17657
scalar tiger_network.node[20].core_layer 	data[20] 	12272
scalar tiger_network.node[20].content_store 	p_hit[20] 	0.30497819561647
scalar tiger_network.node[20].content_store 	hits[20] 	5385
scalar tiger_network.node[20].content_store 	misses[20] 	12272
scalar tiger_network.node[20].content_store 	decision_yes[20] 	235
scalar tiger_network.node[20].content_store 	decision_no[20] 	12037
scalar tiger_network.node[20].content_store 	decision_ratio[20] 	0.019149282920469
scalar tiger_network.node[21].core_layer 	interests[21] 	20348
scalar tiger_network.node[21].core_layer 	data[21] 	15057
scalar tiger_network.node[21].content_store 	p_hit[21] 	0.26002555533713
scalar tiger_network.node[21].content_store 	hits[21] 	5291
scalar tiger_network.node[21].content_store 	misses[21] 	15057
scalar tiger_network.node[21].content_store 	decision_yes[21] 	253
scalar tiger_network.node[21].content_store 	decision_no[21] 	14804
scalar tiger_network.node[21].content_store 	decision_ratio[21] 	0.016802815965996
scalar tiger_network.client[0] 	hdistance[0] 	2.1510241773002
scalar tiger_network.client[0] 	downloads[0] 	11912
scalar tiger_network.client[0] 	avg_time[0] 	0.000491482125
scalar tiger_network.client[1] 	hdistance[1] 	2.3660059960027
scalar tiger_network.client[1] 	downloads[1] 	12008
scalar tiger_network.client[1] 	avg_time[1] 	0.000832592103
scalar tiger_network.client[2] 	hdistance[2] 	2.1303493985762
scalar tiger_network.client[2] 	downloads[2] 	12221
scalar tiger_network.client[2] 	avg_time[2] 	0.000846105956
scalar tiger_network.client[3] 	hdistance[3] 	2.2701441546538
scalar tiger_network.client[3] 	downloads[3] 	12001
scalar tiger_network.client[3] 	avg_time[3] 	0.000923493857
scalar tiger_network.client[4] 	hdistance[4] 	2.3807327911461
scalar tiger_network.client[4] 	downloads[4] 	11927
scalar tiger_network.client[4] 	avg_time[4] 	0.000977841226
scalar tiger_network.client[5] 	hdistance[5] 	2.4656784300514
scalar tiger_network.client[5] 	downloads[5] 	11873
scalar tiger_network.client[5] 	avg_time[5] 	0.000945599315
scalar tiger_network.client[6] 	hdistance[6] 	2.4151609378939
scalar tiger_network.client[6] 	downloads[6] 	11899
scalar tiger_network.client[6] 	avg_time[6] 	0.000646880803
scalar tiger_network.client[7] 	hdistance[7] 	2.4512593088444
scalar tiger_network.client[7] 	downloads[7] 	11951
scalar tiger_network.client[7] 	avg_time[7] 	0.000730495062
scalar tiger_network.client[8] 	hdistance[8] 	2.3884546490799
scalar tiger_network.client[8] 	downloads[8] 	12282
scalar tiger_network.client[8] 	avg_time[8] 	0.000748162368
scalar tiger_network.client[9] 	hdistance[9] 	2.653603976802
scalar tiger_network.client[9] 	downloads[9] 	12070
scalar tiger_network.client[9] 	avg_time[9] 	0.000671637566
scalar tiger_network.client[10] 	hdistance[10] 	2.5007403751234
scalar tiger_network.client[10] 	downloads[10] 	12156
scalar tiger_network.client[10] 	avg_time[10] 	0.000681013757
scalar tiger_network.client[11] 	hdistance[11] 	2.2651713922979
scalar tiger_network.client[11] 	downloads[11] 	11815
scalar tiger_network.client[11] 	avg_time[11] 	0.000387364298
scalar tiger_network.client[12] 	hdistance[12] 	2.1582477641603
scalar tiger_network.client[12] 	downloads[12] 	12076
scalar tiger_network.client[12] 	avg_time[12] 	0.000654134755
scalar tiger_network.client[13] 	hdistance[13] 	2.3454381506681
scalar tiger_network.client[13] 	downloads[13] 	12199
scalar tiger_network.client[13] 	avg_time[13] 	0.000693433143
scalar tiger_network.client[14] 	hdistance[14] 	2.5114151418499
scalar tiger_network.client[14] 	downloads[14] 	11914
scalar tiger_network.client[14] 	avg_time[14] 	0.000669790224
scalar tiger_network.client[15] 	hdistance[15] 	2.5077429983526
scalar tiger_network.client[15] 	downloads[15] 	12140
scalar tiger_network.client[15] 	avg_time[15] 	0.000620488903
scalar tiger_network.client[16] 	hdistance[16] 	2.3782590587255
scalar tiger_network.client[16] 	downloads[16] 	12005
scalar tiger_network.client[16] 	avg_time[16] 	0.000558144946
scalar tiger_network.client[17] 	hdistance[17] 	2.2713905964446
scalar tiger_network.client[17] 	downloads[17] 	12038
scalar tiger_network.client[17] 	avg_time[17] 	0.000641878555
scalar tiger_network.client[18] 	hdistance[18] 	2.198033943875
scalar tiger_network.client[18] 	downloads[18] 	11902
scalar tiger_network.client[18] 	avg_time[18] 	0.000440272417
scalar tiger_network.client[19] 	hdistance[19] 	2.2586697939353
scalar tiger_network.client[19] 	downloads[19] 	11938
scalar tiger_network.client[19] 	avg_time[19] 	0.000274007046
scalar tiger_network.client[20] 	hdistance[20] 	2.5407168814007
scalar tiger_network.client[20] 	downloads[20] 	12108
scalar tiger_network.client[20] 	avg_time[20] 	0.000622384827
scalar tiger_network.client[21] 	hdistance[21] 	2.5589743589744
scalar tiger_network.client[21] 	downloads[21] 	12090
scalar tiger_network.client[21] 	avg_time[21] 	0.000569807705
