version 2
run General-67-20160825-21:08:36-3010
attr D ffc
attr F nrr
attr R lru
attr a 0.9
attr configname General
attr datetime 20160825-21:08:36
attr experiment General
attr inifile hw5115/scenario_C/omnetp.ini
attr iterationvars "$net=level3, $rep=8, $a=0.9, $F=nrr, $D=ffc, $R=lru, $window=60, $variance=0.05, $mytime=600"
attr iterationvars2 "$net=level3, $rep=8, $a=0.9, $F=nrr, $D=ffc, $R=lru, $window=60, $variance=0.05, $mytime=600, $repetition=0"
attr measurement "$net=level3, $rep=8, $a=0.9, $F=nrr, $D=ffc, $R=lru, $window=60, $variance=0.05, $mytime=600"
attr mytime 600
attr net level3
attr network networks.${net=level3}_network
attr processid 3010
attr rep 8
attr repetition 0
attr replication #0
attr resultdir results
attr runnumber 67
attr seedset 8
attr variance 0.05
attr window 60

scalar . 	a 	0.9
scalar . 	mytime 	600
scalar . 	rep 	8
scalar . 	variance 	0.05
scalar . 	window 	60
scalar level3_network.content_distribution 	repo-0 	4
scalar level3_network.content_distribution 	repo-1 	26
scalar level3_network.content_distribution 	repo-2 	15
scalar level3_network.content_distribution 	repo-3 	23
scalar level3_network.content_distribution 	repo-4 	44
scalar level3_network.content_distribution 	repo-5 	8
scalar level3_network.content_distribution 	repo-6 	28
scalar level3_network.content_distribution 	repo-7 	25
scalar level3_network.content_distribution 	repo-8 	31
scalar level3_network.content_distribution 	repo-9 	5
scalar level3_network.content_distribution 	repo-10 	1
scalar level3_network.content_distribution 	repo-11 	39
scalar level3_network.content_distribution 	repo-12 	3
scalar level3_network.content_distribution 	repo-13 	24
scalar level3_network.content_distribution 	repo-14 	20
scalar level3_network.content_distribution 	repo-15 	45
scalar level3_network.content_distribution 	client-0 	21
scalar level3_network.content_distribution 	client-1 	9
scalar level3_network.content_distribution 	client-2 	38
scalar level3_network.content_distribution 	client-3 	2
scalar level3_network.content_distribution 	client-4 	30
scalar level3_network.content_distribution 	client-5 	8
scalar level3_network.content_distribution 	client-6 	23
scalar level3_network.content_distribution 	client-7 	32
scalar level3_network.content_distribution 	client-8 	40
scalar level3_network.content_distribution 	client-9 	42
scalar level3_network.content_distribution 	client-10 	45
scalar level3_network.content_distribution 	client-11 	33
scalar level3_network.content_distribution 	client-12 	28
scalar level3_network.content_distribution 	client-13 	3
scalar level3_network.content_distribution 	client-14 	15
scalar level3_network.content_distribution 	client-15 	34
scalar level3_network.content_distribution 	client-16 	31
scalar level3_network.content_distribution 	client-17 	17
scalar level3_network.content_distribution 	client-18 	25
scalar level3_network.content_distribution 	client-19 	12
scalar level3_network.content_distribution 	client-20 	22
scalar level3_network.content_distribution 	client-21 	11
scalar level3_network.content_distribution 	client-22 	6
scalar level3_network.content_distribution 	client-23 	39
scalar level3_network.content_distribution 	client-24 	7
scalar level3_network.content_distribution 	client-25 	18
scalar level3_network.content_distribution 	client-26 	36
scalar level3_network.content_distribution 	client-27 	27
scalar level3_network.content_distribution 	client-28 	43
scalar level3_network.content_distribution 	client-29 	37
scalar level3_network.content_distribution 	client-30 	4
scalar level3_network.content_distribution 	client-31 	14
scalar level3_network.content_distribution 	repo-0_card 	6204
scalar level3_network.content_distribution 	repo-0_price 	0
scalar level3_network.content_distribution 	repo-1_card 	6317
scalar level3_network.content_distribution 	repo-1_price 	0
scalar level3_network.content_distribution 	repo-2_card 	6111
scalar level3_network.content_distribution 	repo-2_price 	0
scalar level3_network.content_distribution 	repo-3_card 	6351
scalar level3_network.content_distribution 	repo-3_price 	0
scalar level3_network.content_distribution 	repo-4_card 	6338
scalar level3_network.content_distribution 	repo-4_price 	0
scalar level3_network.content_distribution 	repo-5_card 	6223
scalar level3_network.content_distribution 	repo-5_price 	0
scalar level3_network.content_distribution 	repo-6_card 	6196
scalar level3_network.content_distribution 	repo-6_price 	0
scalar level3_network.content_distribution 	repo-7_card 	6310
scalar level3_network.content_distribution 	repo-7_price 	0
scalar level3_network.content_distribution 	repo-8_card 	6323
scalar level3_network.content_distribution 	repo-8_price 	0
scalar level3_network.content_distribution 	repo-9_card 	6231
scalar level3_network.content_distribution 	repo-9_price 	0
scalar level3_network.content_distribution 	repo-10_card 	6186
scalar level3_network.content_distribution 	repo-10_price 	0
scalar level3_network.content_distribution 	repo-11_card 	6137
scalar level3_network.content_distribution 	repo-11_price 	0
scalar level3_network.content_distribution 	repo-12_card 	6315
scalar level3_network.content_distribution 	repo-12_price 	0
scalar level3_network.content_distribution 	repo-13_card 	6325
scalar level3_network.content_distribution 	repo-13_price 	0
scalar level3_network.content_distribution 	repo-14_card 	6116
scalar level3_network.content_distribution 	repo-14_price 	0
scalar level3_network.content_distribution 	repo-15_card 	6317
scalar level3_network.content_distribution 	repo-15_price 	0
scalar level3_network.statistics 	stabilization_time 	3904
scalar level3_network.statistics 	p_hit 	0.27063134522023
scalar level3_network.statistics 	interests 	19325.826086957
scalar level3_network.statistics 	data 	11005.413043478
scalar level3_network.statistics 	hdistance 	1.827324709029
scalar level3_network.statistics 	avg_time 	0.0334168771
scalar level3_network.statistics 	downloads 	382681
scalar level3_network.statistics 	total_cost 	0
scalar level3_network.statistics 	total_replicas 	100000
scalar level3_network.statistics 	inner_hit 	0.49634290701655
scalar level3_network.node[0].core_layer 	interests[0] 	1824
scalar level3_network.node[0].core_layer 	data[0] 	323
scalar level3_network.node[0].core_layer 	repo_int[0] 	192740
scalar level3_network.node[0].content_store 	p_hit[0] 	0.82291666666667
scalar level3_network.node[0].content_store 	hits[0] 	1501
scalar level3_network.node[0].content_store 	misses[0] 	323
scalar level3_network.node[0].content_store 	decision_yes[0] 	13
scalar level3_network.node[0].content_store 	decision_no[0] 	310
scalar level3_network.node[0].content_store 	decision_ratio[0] 	0.040247678018576
scalar level3_network.node[1].core_layer 	interests[1] 	11450
scalar level3_network.node[1].core_layer 	repo_load[1] 	10274
scalar level3_network.node[1].core_layer 	data[1] 	0
scalar level3_network.node[1].content_store 	p_hit[1] 	0.10270742358079
scalar level3_network.node[1].content_store 	hits[1] 	1176
scalar level3_network.node[1].content_store 	misses[1] 	10274
scalar level3_network.node[1].content_store 	decision_yes[1] 	417
scalar level3_network.node[1].content_store 	decision_no[1] 	9857
scalar level3_network.node[1].content_store 	decision_ratio[1] 	0.040587891765622
scalar level3_network.node[2].core_layer 	interests[2] 	40604
scalar level3_network.node[2].core_layer 	data[2] 	35702
scalar level3_network.node[2].content_store 	p_hit[2] 	0.12062850950645
scalar level3_network.node[2].content_store 	hits[2] 	4898
scalar level3_network.node[2].content_store 	misses[2] 	35706
scalar level3_network.node[2].content_store 	decision_yes[2] 	637
scalar level3_network.node[2].content_store 	decision_no[2] 	35065
scalar level3_network.node[2].content_store 	decision_ratio[2] 	0.017842137695367
scalar level3_network.node[3].core_layer 	interests[3] 	47578
scalar level3_network.node[3].core_layer 	repo_load[3] 	13406
scalar level3_network.node[3].core_layer 	data[3] 	28268
scalar level3_network.node[3].content_store 	p_hit[3] 	0.12392282147211
scalar level3_network.node[3].content_store 	hits[3] 	5896
scalar level3_network.node[3].content_store 	misses[3] 	41682
scalar level3_network.node[3].content_store 	decision_yes[3] 	535
scalar level3_network.node[3].content_store 	decision_no[3] 	41139
scalar level3_network.node[3].content_store 	decision_ratio[3] 	0.012837740557662
scalar level3_network.node[4].core_layer 	interests[4] 	25541
scalar level3_network.node[4].core_layer 	repo_load[4] 	12275
scalar level3_network.node[4].core_layer 	data[4] 	8909
scalar level3_network.node[4].content_store 	p_hit[4] 	0.1705493128695
scalar level3_network.node[4].content_store 	hits[4] 	4356
scalar level3_network.node[4].content_store 	misses[4] 	21185
scalar level3_network.node[4].content_store 	decision_yes[4] 	487
scalar level3_network.node[4].content_store 	decision_no[4] 	20697
scalar level3_network.node[4].content_store 	decision_ratio[4] 	0.022989048338369
scalar level3_network.node[5].core_layer 	interests[5] 	16179
scalar level3_network.node[5].core_layer 	repo_load[5] 	11471
scalar level3_network.node[5].core_layer 	data[5] 	1766
scalar level3_network.node[5].content_store 	p_hit[5] 	0.18184065764262
scalar level3_network.node[5].content_store 	hits[5] 	2942
scalar level3_network.node[5].content_store 	misses[5] 	13237
scalar level3_network.node[5].content_store 	decision_yes[5] 	481
scalar level3_network.node[5].content_store 	decision_no[5] 	12756
scalar level3_network.node[5].content_store 	decision_ratio[5] 	0.036337538717232
scalar level3_network.node[6].core_layer 	interests[6] 	13446
scalar level3_network.node[6].core_layer 	data[6] 	8949
scalar level3_network.node[6].content_store 	p_hit[6] 	0.33444890673806
scalar level3_network.node[6].content_store 	hits[6] 	4497
scalar level3_network.node[6].content_store 	misses[6] 	8949
scalar level3_network.node[6].content_store 	decision_yes[6] 	162
scalar level3_network.node[6].content_store 	decision_no[6] 	8787
scalar level3_network.node[6].content_store 	decision_ratio[6] 	0.018102581293999
scalar level3_network.node[7].core_layer 	interests[7] 	110883
scalar level3_network.node[7].core_layer 	data[7] 	102615
scalar level3_network.node[7].content_store 	p_hit[7] 	0.07423139705816
scalar level3_network.node[7].content_store 	hits[7] 	8231
scalar level3_network.node[7].content_store 	misses[7] 	102652
scalar level3_network.node[7].content_store 	decision_yes[7] 	1048
scalar level3_network.node[7].content_store 	decision_no[7] 	101566
scalar level3_network.node[7].content_store 	decision_ratio[7] 	0.010213031360243
scalar level3_network.node[8].core_layer 	interests[8] 	43406
scalar level3_network.node[8].core_layer 	repo_load[8] 	13876
scalar level3_network.node[8].core_layer 	data[8] 	20999
scalar level3_network.node[8].content_store 	p_hit[8] 	0.19647053402755
scalar level3_network.node[8].content_store 	hits[8] 	8528
scalar level3_network.node[8].content_store 	misses[8] 	34878
scalar level3_network.node[8].content_store 	decision_yes[8] 	654
scalar level3_network.node[8].content_store 	decision_no[8] 	34221
scalar level3_network.node[8].content_store 	decision_ratio[8] 	0.018752688172043
scalar level3_network.node[9].core_layer 	interests[9] 	15619
scalar level3_network.node[9].core_layer 	data[9] 	8747
scalar level3_network.node[9].content_store 	p_hit[9] 	0.43984890197836
scalar level3_network.node[9].content_store 	hits[9] 	6870
scalar level3_network.node[9].content_store 	misses[9] 	8749
scalar level3_network.node[9].content_store 	decision_yes[9] 	150
scalar level3_network.node[9].content_store 	decision_no[9] 	8597
scalar level3_network.node[9].content_store 	decision_ratio[9] 	0.017148736709729
scalar level3_network.node[10].core_layer 	interests[10] 	0
scalar level3_network.node[10].core_layer 	data[10] 	0
scalar level3_network.node[10].content_store 	p_hit[10] 	-nan
scalar level3_network.node[10].content_store 	hits[10] 	0
scalar level3_network.node[10].content_store 	misses[10] 	0
scalar level3_network.node[10].content_store 	decision_yes[10] 	0
scalar level3_network.node[10].content_store 	decision_no[10] 	0
scalar level3_network.node[10].content_store 	decision_ratio[10] 	0
scalar level3_network.node[11].core_layer 	interests[11] 	71653
scalar level3_network.node[11].core_layer 	data[11] 	62363
scalar level3_network.node[11].content_store 	p_hit[11] 	0.12906647314139
scalar level3_network.node[11].content_store 	hits[11] 	9248
scalar level3_network.node[11].content_store 	misses[11] 	62405
scalar level3_network.node[11].content_store 	decision_yes[11] 	633
scalar level3_network.node[11].content_store 	decision_no[11] 	61729
scalar level3_network.node[11].content_store 	decision_ratio[11] 	0.010150412109939
scalar level3_network.node[12].core_layer 	interests[12] 	13721
scalar level3_network.node[12].core_layer 	data[12] 	8917
scalar level3_network.node[12].content_store 	p_hit[12] 	0.35012025362583
scalar level3_network.node[12].content_store 	hits[12] 	4804
scalar level3_network.node[12].content_store 	misses[12] 	8917
scalar level3_network.node[12].content_store 	decision_yes[12] 	173
scalar level3_network.node[12].content_store 	decision_no[12] 	8744
scalar level3_network.node[12].content_store 	decision_ratio[12] 	0.019401143882472
scalar level3_network.node[13].core_layer 	interests[13] 	0
scalar level3_network.node[13].core_layer 	data[13] 	0
scalar level3_network.node[13].content_store 	p_hit[13] 	-nan
scalar level3_network.node[13].content_store 	hits[13] 	0
scalar level3_network.node[13].content_store 	misses[13] 	0
scalar level3_network.node[13].content_store 	decision_yes[13] 	0
scalar level3_network.node[13].content_store 	decision_no[13] 	0
scalar level3_network.node[13].content_store 	decision_ratio[13] 	0
scalar level3_network.node[14].core_layer 	interests[14] 	13866
scalar level3_network.node[14].core_layer 	data[14] 	8836
scalar level3_network.node[14].content_store 	p_hit[14] 	0.36261358719169
scalar level3_network.node[14].content_store 	hits[14] 	5028
scalar level3_network.node[14].content_store 	misses[14] 	8838
scalar level3_network.node[14].content_store 	decision_yes[14] 	148
scalar level3_network.node[14].content_store 	decision_no[14] 	8688
scalar level3_network.node[14].content_store 	decision_ratio[14] 	0.016749660479855
scalar level3_network.node[15].core_layer 	interests[15] 	25180
scalar level3_network.node[15].core_layer 	repo_load[15] 	11882
scalar level3_network.node[15].core_layer 	data[15] 	8822
scalar level3_network.node[15].content_store 	p_hit[15] 	0.17768069896743
scalar level3_network.node[15].content_store 	hits[15] 	4474
scalar level3_network.node[15].content_store 	misses[15] 	20706
scalar level3_network.node[15].content_store 	decision_yes[15] 	474
scalar level3_network.node[15].content_store 	decision_no[15] 	20230
scalar level3_network.node[15].content_store 	decision_ratio[15] 	0.022894126738794
scalar level3_network.node[16].core_layer 	interests[16] 	0
scalar level3_network.node[16].core_layer 	data[16] 	0
scalar level3_network.node[16].content_store 	p_hit[16] 	-nan
scalar level3_network.node[16].content_store 	hits[16] 	0
scalar level3_network.node[16].content_store 	misses[16] 	0
scalar level3_network.node[16].content_store 	decision_yes[16] 	0
scalar level3_network.node[16].content_store 	decision_no[16] 	0
scalar level3_network.node[16].content_store 	decision_ratio[16] 	0
scalar level3_network.node[17].core_layer 	interests[17] 	20173
scalar level3_network.node[17].core_layer 	data[17] 	8812
scalar level3_network.node[17].content_store 	p_hit[17] 	0.56307936350568
scalar level3_network.node[17].content_store 	hits[17] 	11359
scalar level3_network.node[17].content_store 	misses[17] 	8814
scalar level3_network.node[17].content_store 	decision_yes[17] 	186
scalar level3_network.node[17].content_store 	decision_no[17] 	8626
scalar level3_network.node[17].content_store 	decision_ratio[17] 	0.021107580571947
scalar level3_network.node[18].core_layer 	interests[18] 	35491
scalar level3_network.node[18].core_layer 	data[18] 	23705
scalar level3_network.node[18].content_store 	p_hit[18] 	0.33199966188611
scalar level3_network.node[18].content_store 	hits[18] 	11783
scalar level3_network.node[18].content_store 	misses[18] 	23708
scalar level3_network.node[18].content_store 	decision_yes[18] 	463
scalar level3_network.node[18].content_store 	decision_no[18] 	23242
scalar level3_network.node[18].content_store 	decision_ratio[18] 	0.01953174435773
scalar level3_network.node[19].core_layer 	interests[19] 	0
scalar level3_network.node[19].core_layer 	data[19] 	0
scalar level3_network.node[19].content_store 	p_hit[19] 	-nan
scalar level3_network.node[19].content_store 	hits[19] 	0
scalar level3_network.node[19].content_store 	misses[19] 	0
scalar level3_network.node[19].content_store 	decision_yes[19] 	0
scalar level3_network.node[19].content_store 	decision_no[19] 	0
scalar level3_network.node[19].content_store 	decision_ratio[19] 	0
scalar level3_network.node[20].core_layer 	interests[20] 	13083
scalar level3_network.node[20].core_layer 	repo_load[20] 	11489
scalar level3_network.node[20].core_layer 	data[20] 	0
scalar level3_network.node[20].content_store 	p_hit[20] 	0.12183749904456
scalar level3_network.node[20].content_store 	hits[20] 	1594
scalar level3_network.node[20].content_store 	misses[20] 	11489
scalar level3_network.node[20].content_store 	decision_yes[20] 	527
scalar level3_network.node[20].content_store 	decision_no[20] 	10962
scalar level3_network.node[20].content_store 	decision_ratio[20] 	0.045869962572896
scalar level3_network.node[21].core_layer 	interests[21] 	12734
scalar level3_network.node[21].core_layer 	data[21] 	8655
scalar level3_network.node[21].content_store 	p_hit[21] 	0.32016648343019
scalar level3_network.node[21].content_store 	hits[21] 	4077
scalar level3_network.node[21].content_store 	misses[21] 	8657
scalar level3_network.node[21].content_store 	decision_yes[21] 	152
scalar level3_network.node[21].content_store 	decision_no[21] 	8503
scalar level3_network.node[21].content_store 	decision_ratio[21] 	0.017562102830734
scalar level3_network.node[22].core_layer 	interests[22] 	13640
scalar level3_network.node[22].core_layer 	data[22] 	8880
scalar level3_network.node[22].content_store 	p_hit[22] 	0.34882697947214
scalar level3_network.node[22].content_store 	hits[22] 	4758
scalar level3_network.node[22].content_store 	misses[22] 	8882
scalar level3_network.node[22].content_store 	decision_yes[22] 	174
scalar level3_network.node[22].content_store 	decision_no[22] 	8706
scalar level3_network.node[22].content_store 	decision_ratio[22] 	0.019594594594595
scalar level3_network.node[23].core_layer 	interests[23] 	25859
scalar level3_network.node[23].core_layer 	repo_load[23] 	12411
scalar level3_network.node[23].core_layer 	data[23] 	8918
scalar level3_network.node[23].content_store 	p_hit[23] 	0.17510344560888
scalar level3_network.node[23].content_store 	hits[23] 	4528
scalar level3_network.node[23].content_store 	misses[23] 	21331
scalar level3_network.node[23].content_store 	decision_yes[23] 	477
scalar level3_network.node[23].content_store 	decision_no[23] 	20852
scalar level3_network.node[23].content_store 	decision_ratio[23] 	0.022363917670777
scalar level3_network.node[24].core_layer 	interests[24] 	13933
scalar level3_network.node[24].core_layer 	repo_load[24] 	11733
scalar level3_network.node[24].core_layer 	data[24] 	0
scalar level3_network.node[24].content_store 	p_hit[24] 	0.15789851431852
scalar level3_network.node[24].content_store 	hits[24] 	2200
scalar level3_network.node[24].content_store 	misses[24] 	11733
scalar level3_network.node[24].content_store 	decision_yes[24] 	522
scalar level3_network.node[24].content_store 	decision_no[24] 	11211
scalar level3_network.node[24].content_store 	decision_ratio[24] 	0.044489900281258
scalar level3_network.node[25].core_layer 	interests[25] 	25244
scalar level3_network.node[25].core_layer 	repo_load[25] 	12088
scalar level3_network.node[25].core_layer 	data[25] 	8850
scalar level3_network.node[25].content_store 	p_hit[25] 	0.17053557280938
scalar level3_network.node[25].content_store 	hits[25] 	4305
scalar level3_network.node[25].content_store 	misses[25] 	20939
scalar level3_network.node[25].content_store 	decision_yes[25] 	463
scalar level3_network.node[25].content_store 	decision_no[25] 	20475
scalar level3_network.node[25].content_store 	decision_ratio[25] 	0.022112904766453
scalar level3_network.node[26].core_layer 	interests[26] 	13720
scalar level3_network.node[26].core_layer 	repo_load[26] 	11387
scalar level3_network.node[26].core_layer 	data[26] 	0
scalar level3_network.node[26].content_store 	p_hit[26] 	0.17004373177843
scalar level3_network.node[26].content_store 	hits[26] 	2333
scalar level3_network.node[26].content_store 	misses[26] 	11387
scalar level3_network.node[26].content_store 	decision_yes[26] 	493
scalar level3_network.node[26].content_store 	decision_no[26] 	10894
scalar level3_network.node[26].content_store 	decision_ratio[26] 	0.043294985509792
scalar level3_network.node[27].core_layer 	interests[27] 	13609
scalar level3_network.node[27].core_layer 	data[27] 	8928
scalar level3_network.node[27].content_store 	p_hit[27] 	0.3438165919612
scalar level3_network.node[27].content_store 	hits[27] 	4679
scalar level3_network.node[27].content_store 	misses[27] 	8930
scalar level3_network.node[27].content_store 	decision_yes[27] 	176
scalar level3_network.node[27].content_store 	decision_no[27] 	8752
scalar level3_network.node[27].content_store 	decision_ratio[27] 	0.019713261648746
scalar level3_network.node[28].core_layer 	interests[28] 	24770
scalar level3_network.node[28].core_layer 	repo_load[28] 	11603
scalar level3_network.node[28].core_layer 	data[28] 	8752
scalar level3_network.node[28].content_store 	p_hit[28] 	0.17819943480016
scalar level3_network.node[28].content_store 	hits[28] 	4414
scalar level3_network.node[28].content_store 	misses[28] 	20356
scalar level3_network.node[28].content_store 	decision_yes[28] 	446
scalar level3_network.node[28].content_store 	decision_no[28] 	19909
scalar level3_network.node[28].content_store 	decision_ratio[28] 	0.021911078359126
scalar level3_network.node[29].core_layer 	interests[29] 	0
scalar level3_network.node[29].core_layer 	data[29] 	0
scalar level3_network.node[29].content_store 	p_hit[29] 	-nan
scalar level3_network.node[29].content_store 	hits[29] 	0
scalar level3_network.node[29].content_store 	misses[29] 	0
scalar level3_network.node[29].content_store 	decision_yes[29] 	0
scalar level3_network.node[29].content_store 	decision_no[29] 	0
scalar level3_network.node[29].content_store 	decision_ratio[29] 	0
scalar level3_network.node[30].core_layer 	interests[30] 	14030
scalar level3_network.node[30].core_layer 	data[30] 	8912
scalar level3_network.node[30].content_store 	p_hit[30] 	0.36471846044191
scalar level3_network.node[30].content_store 	hits[30] 	5117
scalar level3_network.node[30].content_store 	misses[30] 	8913
scalar level3_network.node[30].content_store 	decision_yes[30] 	146
scalar level3_network.node[30].content_store 	decision_no[30] 	8766
scalar level3_network.node[30].content_store 	decision_ratio[30] 	0.016382405745063
scalar level3_network.node[31].core_layer 	interests[31] 	25675
scalar level3_network.node[31].core_layer 	repo_load[31] 	12487
scalar level3_network.node[31].core_layer 	data[31] 	8894
scalar level3_network.node[31].content_store 	p_hit[31] 	0.16704965920156
scalar level3_network.node[31].content_store 	hits[31] 	4289
scalar level3_network.node[31].content_store 	misses[31] 	21386
scalar level3_network.node[31].content_store 	decision_yes[31] 	477
scalar level3_network.node[31].content_store 	decision_no[31] 	20904
scalar level3_network.node[31].content_store 	decision_ratio[31] 	0.022309527150274
scalar level3_network.node[32].core_layer 	interests[32] 	13754
scalar level3_network.node[32].core_layer 	data[32] 	8927
scalar level3_network.node[32].content_store 	p_hit[32] 	0.35095245019631
scalar level3_network.node[32].content_store 	hits[32] 	4827
scalar level3_network.node[32].content_store 	misses[32] 	8927
scalar level3_network.node[32].content_store 	decision_yes[32] 	162
scalar level3_network.node[32].content_store 	decision_no[32] 	8765
scalar level3_network.node[32].content_store 	decision_ratio[32] 	0.018147193906127
scalar level3_network.node[33].core_layer 	interests[33] 	13609
scalar level3_network.node[33].core_layer 	data[33] 	9020
scalar level3_network.node[33].content_store 	p_hit[33] 	0.33705635976192
scalar level3_network.node[33].content_store 	hits[33] 	4587
scalar level3_network.node[33].content_store 	misses[33] 	9022
scalar level3_network.node[33].content_store 	decision_yes[33] 	152
scalar level3_network.node[33].content_store 	decision_no[33] 	8868
scalar level3_network.node[33].content_store 	decision_ratio[33] 	0.016851441241685
scalar level3_network.node[34].core_layer 	interests[34] 	13862
scalar level3_network.node[34].core_layer 	data[34] 	8957
scalar level3_network.node[34].content_store 	p_hit[34] 	0.35355648535565
scalar level3_network.node[34].content_store 	hits[34] 	4901
scalar level3_network.node[34].content_store 	misses[34] 	8961
scalar level3_network.node[34].content_store 	decision_yes[34] 	165
scalar level3_network.node[34].content_store 	decision_no[34] 	8792
scalar level3_network.node[34].content_store 	decision_ratio[34] 	0.018421346432957
scalar level3_network.node[35].core_layer 	interests[35] 	0
scalar level3_network.node[35].core_layer 	data[35] 	0
scalar level3_network.node[35].content_store 	p_hit[35] 	-nan
scalar level3_network.node[35].content_store 	hits[35] 	0
scalar level3_network.node[35].content_store 	misses[35] 	0
scalar level3_network.node[35].content_store 	decision_yes[35] 	0
scalar level3_network.node[35].content_store 	decision_no[35] 	0
scalar level3_network.node[35].content_store 	decision_ratio[35] 	0
scalar level3_network.node[36].core_layer 	interests[36] 	13619
scalar level3_network.node[36].core_layer 	data[36] 	8933
scalar level3_network.node[36].content_store 	p_hit[36] 	0.34407812614729
scalar level3_network.node[36].content_store 	hits[36] 	4686
scalar level3_network.node[36].content_store 	misses[36] 	8933
scalar level3_network.node[36].content_store 	decision_yes[36] 	173
scalar level3_network.node[36].content_store 	decision_no[36] 	8760
scalar level3_network.node[36].content_store 	decision_ratio[36] 	0.019366394268443
scalar level3_network.node[37].core_layer 	interests[37] 	13649
scalar level3_network.node[37].core_layer 	data[37] 	8808
scalar level3_network.node[37].content_store 	p_hit[37] 	0.35423840574401
scalar level3_network.node[37].content_store 	hits[37] 	4835
scalar level3_network.node[37].content_store 	misses[37] 	8814
scalar level3_network.node[37].content_store 	decision_yes[37] 	145
scalar level3_network.node[37].content_store 	decision_no[37] 	8663
scalar level3_network.node[37].content_store 	decision_ratio[37] 	0.016462306993642
scalar level3_network.node[38].core_layer 	interests[38] 	13929
scalar level3_network.node[38].core_layer 	data[38] 	8954
scalar level3_network.node[38].content_store 	p_hit[38] 	0.35731208270515
scalar level3_network.node[38].content_store 	hits[38] 	4977
scalar level3_network.node[38].content_store 	misses[38] 	8952
scalar level3_network.node[38].content_store 	decision_yes[38] 	161
scalar level3_network.node[38].content_store 	decision_no[38] 	8793
scalar level3_network.node[38].content_store 	decision_ratio[38] 	0.017980790708063
scalar level3_network.node[39].core_layer 	interests[39] 	25403
scalar level3_network.node[39].core_layer 	repo_load[39] 	12156
scalar level3_network.node[39].core_layer 	data[39] 	8885
scalar level3_network.node[39].content_store 	p_hit[39] 	0.17175136794867
scalar level3_network.node[39].content_store 	hits[39] 	4363
scalar level3_network.node[39].content_store 	misses[39] 	21040
scalar level3_network.node[39].content_store 	decision_yes[39] 	444
scalar level3_network.node[39].content_store 	decision_no[39] 	20597
scalar level3_network.node[39].content_store 	decision_ratio[39] 	0.021101658666413
scalar level3_network.node[40].core_layer 	interests[40] 	12634
scalar level3_network.node[40].core_layer 	data[40] 	8766
scalar level3_network.node[40].content_store 	p_hit[40] 	0.30631628937787
scalar level3_network.node[40].content_store 	hits[40] 	3870
scalar level3_network.node[40].content_store 	misses[40] 	8764
scalar level3_network.node[40].content_store 	decision_yes[40] 	148
scalar level3_network.node[40].content_store 	decision_no[40] 	8618
scalar level3_network.node[40].content_store 	decision_ratio[40] 	0.016883413187315
scalar level3_network.node[41].core_layer 	interests[41] 	0
scalar level3_network.node[41].core_layer 	data[41] 	0
scalar level3_network.node[41].content_store 	p_hit[41] 	-nan
scalar level3_network.node[41].content_store 	hits[41] 	0
scalar level3_network.node[41].content_store 	misses[41] 	0
scalar level3_network.node[41].content_store 	decision_yes[41] 	0
scalar level3_network.node[41].content_store 	decision_no[41] 	0
scalar level3_network.node[41].content_store 	decision_ratio[41] 	0
scalar level3_network.node[42].core_layer 	interests[42] 	13627
scalar level3_network.node[42].core_layer 	data[42] 	8874
scalar level3_network.node[42].content_store 	p_hit[42] 	0.34857268657812
scalar level3_network.node[42].content_store 	hits[42] 	4750
scalar level3_network.node[42].content_store 	misses[42] 	8877
scalar level3_network.node[42].content_store 	decision_yes[42] 	158
scalar level3_network.node[42].content_store 	decision_no[42] 	8716
scalar level3_network.node[42].content_store 	decision_ratio[42] 	0.017804823078657
scalar level3_network.node[43].core_layer 	interests[43] 	12990
scalar level3_network.node[43].core_layer 	data[43] 	8738
scalar level3_network.node[43].content_store 	p_hit[43] 	0.32694380292533
scalar level3_network.node[43].content_store 	hits[43] 	4247
scalar level3_network.node[43].content_store 	misses[43] 	8743
scalar level3_network.node[43].content_store 	decision_yes[43] 	139
scalar level3_network.node[43].content_store 	decision_no[43] 	8599
scalar level3_network.node[43].content_store 	decision_ratio[43] 	0.015907530327306
scalar level3_network.node[44].core_layer 	interests[44] 	13558
scalar level3_network.node[44].core_layer 	repo_load[44] 	11512
scalar level3_network.node[44].core_layer 	data[44] 	0
scalar level3_network.node[44].content_store 	p_hit[44] 	0.15090721345331
scalar level3_network.node[44].content_store 	hits[44] 	2046
scalar level3_network.node[44].content_store 	misses[44] 	11512
scalar level3_network.node[44].content_store 	decision_yes[44] 	529
scalar level3_network.node[44].content_store 	decision_no[44] 	10983
scalar level3_network.node[44].content_store 	decision_ratio[44] 	0.045952050034746
scalar level3_network.node[45].core_layer 	interests[45] 	25443
scalar level3_network.node[45].core_layer 	repo_load[45] 	12690
scalar level3_network.node[45].core_layer 	data[45] 	8865
scalar level3_network.node[45].content_store 	p_hit[45] 	0.15261565067013
scalar level3_network.node[45].content_store 	hits[45] 	3883
scalar level3_network.node[45].content_store 	misses[45] 	21560
scalar level3_network.node[45].content_store 	decision_yes[45] 	496
scalar level3_network.node[45].content_store 	decision_no[45] 	21059
scalar level3_network.node[45].content_store 	decision_ratio[45] 	0.023010902342844
scalar level3_network.client[2] 	hdistance[2] 	1.751062588549
scalar level3_network.client[2] 	downloads[2] 	11999
scalar level3_network.client[2] 	avg_time[2] 	0.03857935784
scalar level3_network.client[3] 	hdistance[3] 	1.645310269544
scalar level3_network.client[3] 	downloads[3] 	11909
scalar level3_network.client[3] 	avg_time[3] 	0.038319574012
scalar level3_network.client[4] 	hdistance[4] 	1.8453047913705
scalar level3_network.client[4] 	downloads[4] 	11959
scalar level3_network.client[4] 	avg_time[4] 	0.039402931931
scalar level3_network.client[6] 	hdistance[6] 	1.8633176606451
scalar level3_network.client[6] 	downloads[6] 	12123
scalar level3_network.client[6] 	avg_time[6] 	0.028479079249
scalar level3_network.client[7] 	hdistance[7] 	1.4986376021798
scalar level3_network.client[7] 	downloads[7] 	12111
scalar level3_network.client[7] 	avg_time[7] 	0.024413318104
scalar level3_network.client[8] 	hdistance[8] 	1.5539264413519
scalar level3_network.client[8] 	downloads[8] 	12072
scalar level3_network.client[8] 	avg_time[8] 	0.02730899687
scalar level3_network.client[9] 	hdistance[9] 	1.7199219412863
scalar level3_network.client[9] 	downloads[9] 	11786
scalar level3_network.client[9] 	avg_time[9] 	0.029701196186
scalar level3_network.client[11] 	hdistance[11] 	1.4218970820517
scalar level3_network.client[11] 	downloads[11] 	12029
scalar level3_network.client[11] 	avg_time[11] 	0.025370466923
scalar level3_network.client[12] 	hdistance[12] 	1.8482607965048
scalar level3_network.client[12] 	downloads[12] 	11902
scalar level3_network.client[12] 	avg_time[12] 	0.03769257787
scalar level3_network.client[14] 	hdistance[14] 	1.8559556786704
scalar level3_network.client[14] 	downloads[14] 	11913
scalar level3_network.client[14] 	avg_time[14] 	0.026635120335
scalar level3_network.client[15] 	hdistance[15] 	1.8374736842105
scalar level3_network.client[15] 	downloads[15] 	11875
scalar level3_network.client[15] 	avg_time[15] 	0.039961364288
scalar level3_network.client[17] 	hdistance[17] 	1.4075651302605
scalar level3_network.client[17] 	downloads[17] 	11976
scalar level3_network.client[17] 	avg_time[17] 	0.032904297387
scalar level3_network.client[18] 	hdistance[18] 	1.3809326596538
scalar level3_network.client[18] 	downloads[18] 	12073
scalar level3_network.client[18] 	avg_time[18] 	0.024447151586
scalar level3_network.client[21] 	hdistance[21] 	2.2412310286678
scalar level3_network.client[21] 	downloads[21] 	11860
scalar level3_network.client[21] 	avg_time[21] 	0.03819491433
scalar level3_network.client[22] 	hdistance[22] 	1.8942461150777
scalar level3_network.client[22] 	downloads[22] 	11905
scalar level3_network.client[22] 	avg_time[22] 	0.029019048565
scalar level3_network.client[23] 	hdistance[23] 	1.8753337783712
scalar level3_network.client[23] 	downloads[23] 	11984
scalar level3_network.client[23] 	avg_time[23] 	0.024875891379
scalar level3_network.client[25] 	hdistance[25] 	1.8722997673646
scalar level3_network.client[25] 	downloads[25] 	12036
scalar level3_network.client[25] 	avg_time[25] 	0.024987992467
scalar level3_network.client[27] 	hdistance[27] 	1.9097744360902
scalar level3_network.client[27] 	downloads[27] 	11837
scalar level3_network.client[27] 	avg_time[27] 	0.039289091655
scalar level3_network.client[28] 	hdistance[28] 	1.8561290867618
scalar level3_network.client[28] 	downloads[28] 	11837
scalar level3_network.client[28] 	avg_time[28] 	0.033304821003
scalar level3_network.client[30] 	hdistance[30] 	1.8651835744752
scalar level3_network.client[30] 	downloads[30] 	11957
scalar level3_network.client[30] 	avg_time[30] 	0.02635799609
scalar level3_network.client[31] 	hdistance[31] 	1.8812667112299
scalar level3_network.client[31] 	downloads[31] 	11968
scalar level3_network.client[31] 	avg_time[31] 	0.041374584534
scalar level3_network.client[32] 	hdistance[32] 	1.9081468974251
scalar level3_network.client[32] 	downloads[32] 	11845
scalar level3_network.client[32] 	avg_time[32] 	0.036461825181
scalar level3_network.client[33] 	hdistance[33] 	1.8708798017348
scalar level3_network.client[33] 	downloads[33] 	12105
scalar level3_network.client[33] 	avg_time[33] 	0.03243223391
scalar level3_network.client[34] 	hdistance[34] 	1.901978792686
scalar level3_network.client[34] 	downloads[34] 	11977
scalar level3_network.client[34] 	avg_time[34] 	0.043225664636
scalar level3_network.client[36] 	hdistance[36] 	1.9096989966555
scalar level3_network.client[36] 	downloads[36] 	11960
scalar level3_network.client[36] 	avg_time[36] 	0.027179064098
scalar level3_network.client[37] 	hdistance[37] 	1.8948123154787
scalar level3_network.client[37] 	downloads[37] 	11855
scalar level3_network.client[37] 	avg_time[37] 	0.031977763009
scalar level3_network.client[38] 	hdistance[38] 	1.8879754193656
scalar level3_network.client[38] 	downloads[38] 	12042
scalar level3_network.client[38] 	avg_time[38] 	0.040992094443
scalar level3_network.client[39] 	hdistance[39] 	1.8731597770939
scalar level3_network.client[39] 	downloads[39] 	12023
scalar level3_network.client[39] 	avg_time[39] 	0.026267091898
scalar level3_network.client[40] 	hdistance[40] 	2.1736983090575
scalar level3_network.client[40] 	downloads[40] 	11946
scalar level3_network.client[40] 	avg_time[40] 	0.033027963996
scalar level3_network.client[42] 	hdistance[42] 	1.8748212332801
scalar level3_network.client[42] 	downloads[42] 	11887
scalar level3_network.client[42] 	avg_time[42] 	0.040969880462
scalar level3_network.client[43] 	hdistance[43] 	2.2710528499129
scalar level3_network.client[43] 	downloads[43] 	12053
scalar level3_network.client[43] 	avg_time[43] 	0.040673959162
scalar level3_network.client[45] 	hdistance[45] 	1.8831354719205
scalar level3_network.client[45] 	downloads[45] 	11877
scalar level3_network.client[45] 	avg_time[45] 	0.045512753817
