version 2
run General-31-20160825-18:31:13-3010
attr D ffc
attr F nrr
attr R lru
attr a 0.9
attr configname General
attr datetime 20160825-18:31:13
attr experiment General
attr inifile hw5115/scenario_C/omnetp.ini
attr iterationvars "$net=level3, $rep=4, $a=0.9, $F=nrr, $D=ffc, $R=lru, $window=60, $variance=0.05, $mytime=600"
attr iterationvars2 "$net=level3, $rep=4, $a=0.9, $F=nrr, $D=ffc, $R=lru, $window=60, $variance=0.05, $mytime=600, $repetition=0"
attr measurement "$net=level3, $rep=4, $a=0.9, $F=nrr, $D=ffc, $R=lru, $window=60, $variance=0.05, $mytime=600"
attr mytime 600
attr net level3
attr network networks.${net=level3}_network
attr processid 3010
attr rep 4
attr repetition 0
attr replication #0
attr resultdir results
attr runnumber 31
attr seedset 4
attr variance 0.05
attr window 60

scalar . 	a 	0.9
scalar . 	mytime 	600
scalar . 	rep 	4
scalar . 	variance 	0.05
scalar . 	window 	60
scalar level3_network.content_distribution 	repo-0 	18
scalar level3_network.content_distribution 	repo-1 	10
scalar level3_network.content_distribution 	repo-2 	16
scalar level3_network.content_distribution 	repo-3 	38
scalar level3_network.content_distribution 	repo-4 	34
scalar level3_network.content_distribution 	repo-5 	25
scalar level3_network.content_distribution 	repo-6 	44
scalar level3_network.content_distribution 	repo-7 	35
scalar level3_network.content_distribution 	repo-8 	26
scalar level3_network.content_distribution 	repo-9 	2
scalar level3_network.content_distribution 	repo-10 	37
scalar level3_network.content_distribution 	repo-11 	13
scalar level3_network.content_distribution 	repo-12 	9
scalar level3_network.content_distribution 	repo-13 	11
scalar level3_network.content_distribution 	repo-14 	32
scalar level3_network.content_distribution 	repo-15 	19
scalar level3_network.content_distribution 	client-0 	21
scalar level3_network.content_distribution 	client-1 	9
scalar level3_network.content_distribution 	client-2 	38
scalar level3_network.content_distribution 	client-3 	2
scalar level3_network.content_distribution 	client-4 	30
scalar level3_network.content_distribution 	client-5 	8
scalar level3_network.content_distribution 	client-6 	23
scalar level3_network.content_distribution 	client-7 	32
scalar level3_network.content_distribution 	client-8 	40
scalar level3_network.content_distribution 	client-9 	42
scalar level3_network.content_distribution 	client-10 	45
scalar level3_network.content_distribution 	client-11 	33
scalar level3_network.content_distribution 	client-12 	28
scalar level3_network.content_distribution 	client-13 	3
scalar level3_network.content_distribution 	client-14 	15
scalar level3_network.content_distribution 	client-15 	34
scalar level3_network.content_distribution 	client-16 	31
scalar level3_network.content_distribution 	client-17 	17
scalar level3_network.content_distribution 	client-18 	25
scalar level3_network.content_distribution 	client-19 	12
scalar level3_network.content_distribution 	client-20 	22
scalar level3_network.content_distribution 	client-21 	11
scalar level3_network.content_distribution 	client-22 	6
scalar level3_network.content_distribution 	client-23 	39
scalar level3_network.content_distribution 	client-24 	7
scalar level3_network.content_distribution 	client-25 	18
scalar level3_network.content_distribution 	client-26 	36
scalar level3_network.content_distribution 	client-27 	27
scalar level3_network.content_distribution 	client-28 	43
scalar level3_network.content_distribution 	client-29 	37
scalar level3_network.content_distribution 	client-30 	4
scalar level3_network.content_distribution 	client-31 	14
scalar level3_network.content_distribution 	repo-0_card 	6112
scalar level3_network.content_distribution 	repo-0_price 	0
scalar level3_network.content_distribution 	repo-1_card 	6294
scalar level3_network.content_distribution 	repo-1_price 	0
scalar level3_network.content_distribution 	repo-2_card 	6315
scalar level3_network.content_distribution 	repo-2_price 	0
scalar level3_network.content_distribution 	repo-3_card 	6169
scalar level3_network.content_distribution 	repo-3_price 	0
scalar level3_network.content_distribution 	repo-4_card 	6306
scalar level3_network.content_distribution 	repo-4_price 	0
scalar level3_network.content_distribution 	repo-5_card 	6222
scalar level3_network.content_distribution 	repo-5_price 	0
scalar level3_network.content_distribution 	repo-6_card 	6389
scalar level3_network.content_distribution 	repo-6_price 	0
scalar level3_network.content_distribution 	repo-7_card 	6226
scalar level3_network.content_distribution 	repo-7_price 	0
scalar level3_network.content_distribution 	repo-8_card 	6293
scalar level3_network.content_distribution 	repo-8_price 	0
scalar level3_network.content_distribution 	repo-9_card 	6212
scalar level3_network.content_distribution 	repo-9_price 	0
scalar level3_network.content_distribution 	repo-10_card 	6328
scalar level3_network.content_distribution 	repo-10_price 	0
scalar level3_network.content_distribution 	repo-11_card 	6234
scalar level3_network.content_distribution 	repo-11_price 	0
scalar level3_network.content_distribution 	repo-12_card 	6163
scalar level3_network.content_distribution 	repo-12_price 	0
scalar level3_network.content_distribution 	repo-13_card 	6137
scalar level3_network.content_distribution 	repo-13_price 	0
scalar level3_network.content_distribution 	repo-14_card 	6292
scalar level3_network.content_distribution 	repo-14_price 	0
scalar level3_network.content_distribution 	repo-15_card 	6308
scalar level3_network.content_distribution 	repo-15_price 	0
scalar level3_network.statistics 	stabilization_time 	1085.2
scalar level3_network.statistics 	p_hit 	0.27001855297486
scalar level3_network.statistics 	interests 	18266.652173913
scalar level3_network.statistics 	data 	9919.1304347826
scalar level3_network.statistics 	hdistance 	1.69288172329
scalar level3_network.statistics 	avg_time 	0.029325919242
scalar level3_network.statistics 	downloads 	383957
scalar level3_network.statistics 	total_cost 	0
scalar level3_network.statistics 	total_replicas 	100000
scalar level3_network.statistics 	inner_hit 	0.49522993460205
scalar level3_network.node[0].core_layer 	interests[0] 	0
scalar level3_network.node[0].core_layer 	data[0] 	0
scalar level3_network.node[0].core_layer 	repo_int[0] 	193810
scalar level3_network.node[0].content_store 	p_hit[0] 	-nan
scalar level3_network.node[0].content_store 	hits[0] 	0
scalar level3_network.node[0].content_store 	misses[0] 	0
scalar level3_network.node[0].content_store 	decision_yes[0] 	0
scalar level3_network.node[0].content_store 	decision_no[0] 	0
scalar level3_network.node[0].content_store 	decision_ratio[0] 	0
scalar level3_network.node[1].core_layer 	interests[1] 	0
scalar level3_network.node[1].core_layer 	data[1] 	0
scalar level3_network.node[1].content_store 	p_hit[1] 	-nan
scalar level3_network.node[1].content_store 	hits[1] 	0
scalar level3_network.node[1].content_store 	misses[1] 	0
scalar level3_network.node[1].content_store 	decision_yes[1] 	0
scalar level3_network.node[1].content_store 	decision_no[1] 	0
scalar level3_network.node[1].content_store 	decision_ratio[1] 	0
scalar level3_network.node[2].core_layer 	interests[2] 	31262
scalar level3_network.node[2].core_layer 	repo_load[2] 	12509
scalar level3_network.node[2].core_layer 	data[2] 	14102
scalar level3_network.node[2].content_store 	p_hit[2] 	0.14864691958288
scalar level3_network.node[2].content_store 	hits[2] 	4647
scalar level3_network.node[2].content_store 	misses[2] 	26615
scalar level3_network.node[2].content_store 	decision_yes[2] 	597
scalar level3_network.node[2].content_store 	decision_no[2] 	26014
scalar level3_network.node[2].content_store 	decision_ratio[2] 	0.022434331667356
scalar level3_network.node[3].core_layer 	interests[3] 	31213
scalar level3_network.node[3].core_layer 	data[3] 	25387
scalar level3_network.node[3].content_store 	p_hit[3] 	0.18649280748406
scalar level3_network.node[3].content_store 	hits[3] 	5821
scalar level3_network.node[3].content_store 	misses[3] 	25392
scalar level3_network.node[3].content_store 	decision_yes[3] 	342
scalar level3_network.node[3].content_store 	decision_no[3] 	25045
scalar level3_network.node[3].content_store 	decision_ratio[3] 	0.013471461771773
scalar level3_network.node[4].core_layer 	interests[4] 	13707
scalar level3_network.node[4].core_layer 	data[4] 	9006
scalar level3_network.node[4].content_store 	p_hit[4] 	0.34274458305975
scalar level3_network.node[4].content_store 	hits[4] 	4698
scalar level3_network.node[4].content_store 	misses[4] 	9009
scalar level3_network.node[4].content_store 	decision_yes[4] 	154
scalar level3_network.node[4].content_store 	decision_no[4] 	8852
scalar level3_network.node[4].content_store 	decision_ratio[4] 	0.017099711303575
scalar level3_network.node[5].core_layer 	interests[5] 	6227
scalar level3_network.node[5].core_layer 	data[5] 	2690
scalar level3_network.node[5].content_store 	p_hit[5] 	0.56801027782239
scalar level3_network.node[5].content_store 	hits[5] 	3537
scalar level3_network.node[5].content_store 	misses[5] 	2690
scalar level3_network.node[5].content_store 	decision_yes[5] 	132
scalar level3_network.node[5].content_store 	decision_no[5] 	2558
scalar level3_network.node[5].content_store 	decision_ratio[5] 	0.04907063197026
scalar level3_network.node[6].core_layer 	interests[6] 	12650
scalar level3_network.node[6].core_layer 	data[6] 	8781
scalar level3_network.node[6].content_store 	p_hit[6] 	0.30553359683794
scalar level3_network.node[6].content_store 	hits[6] 	3865
scalar level3_network.node[6].content_store 	misses[6] 	8785
scalar level3_network.node[6].content_store 	decision_yes[6] 	159
scalar level3_network.node[6].content_store 	decision_no[6] 	8622
scalar level3_network.node[6].content_store 	decision_ratio[6] 	0.018107277075504
scalar level3_network.node[7].core_layer 	interests[7] 	107828
scalar level3_network.node[7].core_layer 	data[7] 	100085
scalar level3_network.node[7].content_store 	p_hit[7] 	0.071651148124791
scalar level3_network.node[7].content_store 	hits[7] 	7726
scalar level3_network.node[7].content_store 	misses[7] 	100102
scalar level3_network.node[7].content_store 	decision_yes[7] 	956
scalar level3_network.node[7].content_store 	decision_no[7] 	99129
scalar level3_network.node[7].content_store 	decision_ratio[7] 	0.009551880901234
scalar level3_network.node[8].core_layer 	interests[8] 	30535
scalar level3_network.node[8].core_layer 	data[8] 	20650
scalar level3_network.node[8].content_store 	p_hit[8] 	0.32366137219584
scalar level3_network.node[8].content_store 	hits[8] 	9883
scalar level3_network.node[8].content_store 	misses[8] 	20652
scalar level3_network.node[8].content_store 	decision_yes[8] 	361
scalar level3_network.node[8].content_store 	decision_no[8] 	20289
scalar level3_network.node[8].content_store 	decision_ratio[8] 	0.017481840193705
scalar level3_network.node[9].core_layer 	interests[9] 	26418
scalar level3_network.node[9].core_layer 	repo_load[9] 	12163
scalar level3_network.node[9].core_layer 	data[9] 	8805
scalar level3_network.node[9].content_store 	p_hit[9] 	0.20626088273147
scalar level3_network.node[9].content_store 	hits[9] 	5449
scalar level3_network.node[9].content_store 	misses[9] 	20969
scalar level3_network.node[9].content_store 	decision_yes[9] 	487
scalar level3_network.node[9].content_store 	decision_no[9] 	20481
scalar level3_network.node[9].content_store 	decision_ratio[9] 	0.023225867989317
scalar level3_network.node[10].core_layer 	interests[10] 	15055
scalar level3_network.node[10].core_layer 	repo_load[10] 	11724
scalar level3_network.node[10].core_layer 	data[10] 	0
scalar level3_network.node[10].content_store 	p_hit[10] 	0.22125539687811
scalar level3_network.node[10].content_store 	hits[10] 	3331
scalar level3_network.node[10].content_store 	misses[10] 	11724
scalar level3_network.node[10].content_store 	decision_yes[10] 	525
scalar level3_network.node[10].content_store 	decision_no[10] 	11199
scalar level3_network.node[10].content_store 	decision_ratio[10] 	0.044779938587513
scalar level3_network.node[11].core_layer 	interests[11] 	68131
scalar level3_network.node[11].core_layer 	repo_load[11] 	13009
scalar level3_network.node[11].core_layer 	data[11] 	46272
scalar level3_network.node[11].content_store 	p_hit[11] 	0.12955923148053
scalar level3_network.node[11].content_store 	hits[11] 	8827
scalar level3_network.node[11].content_store 	misses[11] 	59304
scalar level3_network.node[11].content_store 	decision_yes[11] 	687
scalar level3_network.node[11].content_store 	decision_no[11] 	58594
scalar level3_network.node[11].content_store 	decision_ratio[11] 	0.011588873332096
scalar level3_network.node[12].core_layer 	interests[12] 	13397
scalar level3_network.node[12].core_layer 	data[12] 	8985
scalar level3_network.node[12].content_store 	p_hit[12] 	0.32925281779503
scalar level3_network.node[12].content_store 	hits[12] 	4411
scalar level3_network.node[12].content_store 	misses[12] 	8986
scalar level3_network.node[12].content_store 	decision_yes[12] 	161
scalar level3_network.node[12].content_store 	decision_no[12] 	8824
scalar level3_network.node[12].content_store 	decision_ratio[12] 	0.017918753478019
scalar level3_network.node[13].core_layer 	interests[13] 	12901
scalar level3_network.node[13].core_layer 	repo_load[13] 	11116
scalar level3_network.node[13].core_layer 	data[13] 	0
scalar level3_network.node[13].content_store 	p_hit[13] 	0.13836136733587
scalar level3_network.node[13].content_store 	hits[13] 	1785
scalar level3_network.node[13].content_store 	misses[13] 	11116
scalar level3_network.node[13].content_store 	decision_yes[13] 	493
scalar level3_network.node[13].content_store 	decision_no[13] 	10623
scalar level3_network.node[13].content_store 	decision_ratio[13] 	0.044350485786254
scalar level3_network.node[14].core_layer 	interests[14] 	13581
scalar level3_network.node[14].core_layer 	data[14] 	9017
scalar level3_network.node[14].content_store 	p_hit[14] 	0.33605772770783
scalar level3_network.node[14].content_store 	hits[14] 	4564
scalar level3_network.node[14].content_store 	misses[14] 	9017
scalar level3_network.node[14].content_store 	decision_yes[14] 	144
scalar level3_network.node[14].content_store 	decision_no[14] 	8873
scalar level3_network.node[14].content_store 	decision_ratio[14] 	0.015969834756571
scalar level3_network.node[15].core_layer 	interests[15] 	13239
scalar level3_network.node[15].core_layer 	data[15] 	8784
scalar level3_network.node[15].content_store 	p_hit[15] 	0.33658131278797
scalar level3_network.node[15].content_store 	hits[15] 	4456
scalar level3_network.node[15].content_store 	misses[15] 	8783
scalar level3_network.node[15].content_store 	decision_yes[15] 	155
scalar level3_network.node[15].content_store 	decision_no[15] 	8629
scalar level3_network.node[15].content_store 	decision_ratio[15] 	0.017645719489982
scalar level3_network.node[16].core_layer 	interests[16] 	15377
scalar level3_network.node[16].core_layer 	repo_load[16] 	12067
scalar level3_network.node[16].core_layer 	data[16] 	0
scalar level3_network.node[16].content_store 	p_hit[16] 	0.21525655199324
scalar level3_network.node[16].content_store 	hits[16] 	3310
scalar level3_network.node[16].content_store 	misses[16] 	12067
scalar level3_network.node[16].content_store 	decision_yes[16] 	547
scalar level3_network.node[16].content_store 	decision_no[16] 	11520
scalar level3_network.node[16].content_store 	decision_ratio[16] 	0.045330239496147
scalar level3_network.node[17].core_layer 	interests[17] 	19636
scalar level3_network.node[17].core_layer 	data[17] 	8847
scalar level3_network.node[17].content_store 	p_hit[17] 	0.54939906294561
scalar level3_network.node[17].content_store 	hits[17] 	10788
scalar level3_network.node[17].content_store 	misses[17] 	8848
scalar level3_network.node[17].content_store 	decision_yes[17] 	183
scalar level3_network.node[17].content_store 	decision_no[17] 	8664
scalar level3_network.node[17].content_store 	decision_ratio[17] 	0.02068497795863
scalar level3_network.node[18].core_layer 	interests[18] 	37844
scalar level3_network.node[18].core_layer 	repo_load[18] 	12404
scalar level3_network.node[18].core_layer 	data[18] 	15235
scalar level3_network.node[18].content_store 	p_hit[18] 	0.2696332311595
scalar level3_network.node[18].content_store 	hits[18] 	10204
scalar level3_network.node[18].content_store 	misses[18] 	27640
scalar level3_network.node[18].content_store 	decision_yes[18] 	519
scalar level3_network.node[18].content_store 	decision_no[18] 	27120
scalar level3_network.node[18].content_store 	decision_ratio[18] 	0.018777813958537
scalar level3_network.node[19].core_layer 	interests[19] 	13861
scalar level3_network.node[19].core_layer 	repo_load[19] 	11528
scalar level3_network.node[19].core_layer 	data[19] 	0
scalar level3_network.node[19].content_store 	p_hit[19] 	0.16831397446072
scalar level3_network.node[19].content_store 	hits[19] 	2333
scalar level3_network.node[19].content_store 	misses[19] 	11528
scalar level3_network.node[19].content_store 	decision_yes[19] 	564
scalar level3_network.node[19].content_store 	decision_no[19] 	10964
scalar level3_network.node[19].content_store 	decision_ratio[19] 	0.048924358084663
scalar level3_network.node[20].core_layer 	interests[20] 	0
scalar level3_network.node[20].core_layer 	data[20] 	0
scalar level3_network.node[20].content_store 	p_hit[20] 	-nan
scalar level3_network.node[20].content_store 	hits[20] 	0
scalar level3_network.node[20].content_store 	misses[20] 	0
scalar level3_network.node[20].content_store 	decision_yes[20] 	0
scalar level3_network.node[20].content_store 	decision_no[20] 	0
scalar level3_network.node[20].content_store 	decision_ratio[20] 	0
scalar level3_network.node[21].core_layer 	interests[21] 	12868
scalar level3_network.node[21].core_layer 	data[21] 	8912
scalar level3_network.node[21].content_store 	p_hit[21] 	0.30735156978551
scalar level3_network.node[21].content_store 	hits[21] 	3955
scalar level3_network.node[21].content_store 	misses[21] 	8913
scalar level3_network.node[21].content_store 	decision_yes[21] 	148
scalar level3_network.node[21].content_store 	decision_no[21] 	8764
scalar level3_network.node[21].content_store 	decision_ratio[21] 	0.016606822262118
scalar level3_network.node[22].core_layer 	interests[22] 	13593
scalar level3_network.node[22].core_layer 	data[22] 	8989
scalar level3_network.node[22].content_store 	p_hit[22] 	0.33870374457441
scalar level3_network.node[22].content_store 	hits[22] 	4604
scalar level3_network.node[22].content_store 	misses[22] 	8989
scalar level3_network.node[22].content_store 	decision_yes[22] 	132
scalar level3_network.node[22].content_store 	decision_no[22] 	8857
scalar level3_network.node[22].content_store 	decision_ratio[22] 	0.014684614528869
scalar level3_network.node[23].core_layer 	interests[23] 	13550
scalar level3_network.node[23].core_layer 	data[23] 	8924
scalar level3_network.node[23].content_store 	p_hit[23] 	0.34132841328413
scalar level3_network.node[23].content_store 	hits[23] 	4625
scalar level3_network.node[23].content_store 	misses[23] 	8925
scalar level3_network.node[23].content_store 	decision_yes[23] 	154
scalar level3_network.node[23].content_store 	decision_no[23] 	8770
scalar level3_network.node[23].content_store 	decision_ratio[23] 	0.017256835499776
scalar level3_network.node[24].core_layer 	interests[24] 	0
scalar level3_network.node[24].core_layer 	data[24] 	0
scalar level3_network.node[24].content_store 	p_hit[24] 	-nan
scalar level3_network.node[24].content_store 	hits[24] 	0
scalar level3_network.node[24].content_store 	misses[24] 	0
scalar level3_network.node[24].content_store 	decision_yes[24] 	0
scalar level3_network.node[24].content_store 	decision_no[24] 	0
scalar level3_network.node[24].content_store 	decision_ratio[24] 	0
scalar level3_network.node[25].core_layer 	interests[25] 	25525
scalar level3_network.node[25].core_layer 	repo_load[25] 	12181
scalar level3_network.node[25].core_layer 	data[25] 	8977
scalar level3_network.node[25].content_store 	p_hit[25] 	0.1711263467189
scalar level3_network.node[25].content_store 	hits[25] 	4368
scalar level3_network.node[25].content_store 	misses[25] 	21157
scalar level3_network.node[25].content_store 	decision_yes[25] 	470
scalar level3_network.node[25].content_store 	decision_no[25] 	20688
scalar level3_network.node[25].content_store 	decision_ratio[25] 	0.022213819831742
scalar level3_network.node[26].core_layer 	interests[26] 	13910
scalar level3_network.node[26].core_layer 	repo_load[26] 	11687
scalar level3_network.node[26].core_layer 	data[26] 	0
scalar level3_network.node[26].content_store 	p_hit[26] 	0.15981308411215
scalar level3_network.node[26].content_store 	hits[26] 	2223
scalar level3_network.node[26].content_store 	misses[26] 	11687
scalar level3_network.node[26].content_store 	decision_yes[26] 	554
scalar level3_network.node[26].content_store 	decision_no[26] 	11133
scalar level3_network.node[26].content_store 	decision_ratio[26] 	0.047403097458715
scalar level3_network.node[27].core_layer 	interests[27] 	13533
scalar level3_network.node[27].core_layer 	data[27] 	9014
scalar level3_network.node[27].content_store 	p_hit[27] 	0.33392448089854
scalar level3_network.node[27].content_store 	hits[27] 	4519
scalar level3_network.node[27].content_store 	misses[27] 	9014
scalar level3_network.node[27].content_store 	decision_yes[27] 	159
scalar level3_network.node[27].content_store 	decision_no[27] 	8855
scalar level3_network.node[27].content_store 	decision_ratio[27] 	0.017639227867761
scalar level3_network.node[28].core_layer 	interests[28] 	13779
scalar level3_network.node[28].core_layer 	data[28] 	8957
scalar level3_network.node[28].content_store 	p_hit[28] 	0.34988025255824
scalar level3_network.node[28].content_store 	hits[28] 	4821
scalar level3_network.node[28].content_store 	misses[28] 	8958
scalar level3_network.node[28].content_store 	decision_yes[28] 	173
scalar level3_network.node[28].content_store 	decision_no[28] 	8784
scalar level3_network.node[28].content_store 	decision_ratio[28] 	0.019314502623646
scalar level3_network.node[29].core_layer 	interests[29] 	0
scalar level3_network.node[29].core_layer 	data[29] 	0
scalar level3_network.node[29].content_store 	p_hit[29] 	-nan
scalar level3_network.node[29].content_store 	hits[29] 	0
scalar level3_network.node[29].content_store 	misses[29] 	0
scalar level3_network.node[29].content_store 	decision_yes[29] 	0
scalar level3_network.node[29].content_store 	decision_no[29] 	0
scalar level3_network.node[29].content_store 	decision_ratio[29] 	0
scalar level3_network.node[30].core_layer 	interests[30] 	13854
scalar level3_network.node[30].core_layer 	data[30] 	8988
scalar level3_network.node[30].content_store 	p_hit[30] 	0.35123430056301
scalar level3_network.node[30].content_store 	hits[30] 	4866
scalar level3_network.node[30].content_store 	misses[30] 	8988
scalar level3_network.node[30].content_store 	decision_yes[30] 	156
scalar level3_network.node[30].content_store 	decision_no[30] 	8832
scalar level3_network.node[30].content_store 	decision_ratio[30] 	0.017356475300401
scalar level3_network.node[31].core_layer 	interests[31] 	13628
scalar level3_network.node[31].core_layer 	data[31] 	8997
scalar level3_network.node[31].content_store 	p_hit[31] 	0.33952157323158
scalar level3_network.node[31].content_store 	hits[31] 	4627
scalar level3_network.node[31].content_store 	misses[31] 	9001
scalar level3_network.node[31].content_store 	decision_yes[31] 	165
scalar level3_network.node[31].content_store 	decision_no[31] 	8832
scalar level3_network.node[31].content_store 	decision_ratio[31] 	0.018339446482161
scalar level3_network.node[32].core_layer 	interests[32] 	26007
scalar level3_network.node[32].core_layer 	repo_load[32] 	12624
scalar level3_network.node[32].core_layer 	data[32] 	8888
scalar level3_network.node[32].content_store 	p_hit[32] 	0.17268427730996
scalar level3_network.node[32].content_store 	hits[32] 	4491
scalar level3_network.node[32].content_store 	misses[32] 	21516
scalar level3_network.node[32].content_store 	decision_yes[32] 	516
scalar level3_network.node[32].content_store 	decision_no[32] 	20996
scalar level3_network.node[32].content_store 	decision_ratio[32] 	0.023986612123466
scalar level3_network.node[33].core_layer 	interests[33] 	13508
scalar level3_network.node[33].core_layer 	data[33] 	8937
scalar level3_network.node[33].content_store 	p_hit[33] 	0.33831803375777
scalar level3_network.node[33].content_store 	hits[33] 	4570
scalar level3_network.node[33].content_store 	misses[33] 	8938
scalar level3_network.node[33].content_store 	decision_yes[33] 	160
scalar level3_network.node[33].content_store 	decision_no[33] 	8777
scalar level3_network.node[33].content_store 	decision_ratio[33] 	0.017903099474096
scalar level3_network.node[34].core_layer 	interests[34] 	25890
scalar level3_network.node[34].core_layer 	repo_load[34] 	12637
scalar level3_network.node[34].core_layer 	data[34] 	8827
scalar level3_network.node[34].content_store 	p_hit[34] 	0.17087678640402
scalar level3_network.node[34].content_store 	hits[34] 	4424
scalar level3_network.node[34].content_store 	misses[34] 	21466
scalar level3_network.node[34].content_store 	decision_yes[34] 	486
scalar level3_network.node[34].content_store 	decision_no[34] 	20978
scalar level3_network.node[34].content_store 	decision_ratio[34] 	0.022642564293701
scalar level3_network.node[35].core_layer 	interests[35] 	13676
scalar level3_network.node[35].core_layer 	repo_load[35] 	11483
scalar level3_network.node[35].core_layer 	data[35] 	0
scalar level3_network.node[35].content_store 	p_hit[35] 	0.16035390465048
scalar level3_network.node[35].content_store 	hits[35] 	2193
scalar level3_network.node[35].content_store 	misses[35] 	11483
scalar level3_network.node[35].content_store 	decision_yes[35] 	558
scalar level3_network.node[35].content_store 	decision_no[35] 	10925
scalar level3_network.node[35].content_store 	decision_ratio[35] 	0.048593573108073
scalar level3_network.node[36].core_layer 	interests[36] 	13446
scalar level3_network.node[36].core_layer 	data[36] 	8914
scalar level3_network.node[36].content_store 	p_hit[36] 	0.3370519113491
scalar level3_network.node[36].content_store 	hits[36] 	4532
scalar level3_network.node[36].content_store 	misses[36] 	8914
scalar level3_network.node[36].content_store 	decision_yes[36] 	168
scalar level3_network.node[36].content_store 	decision_no[36] 	8746
scalar level3_network.node[36].content_store 	decision_ratio[36] 	0.018846757908907
scalar level3_network.node[37].core_layer 	interests[37] 	25757
scalar level3_network.node[37].core_layer 	repo_load[37] 	12523
scalar level3_network.node[37].core_layer 	data[37] 	8901
scalar level3_network.node[37].content_store 	p_hit[37] 	0.16814846449509
scalar level3_network.node[37].content_store 	hits[37] 	4331
scalar level3_network.node[37].content_store 	misses[37] 	21426
scalar level3_network.node[37].content_store 	decision_yes[37] 	452
scalar level3_network.node[37].content_store 	decision_no[37] 	20972
scalar level3_network.node[37].content_store 	decision_ratio[37] 	0.02109783420463
scalar level3_network.node[38].core_layer 	interests[38] 	25563
scalar level3_network.node[38].core_layer 	repo_load[38] 	12362
scalar level3_network.node[38].core_layer 	data[38] 	8869
scalar level3_network.node[38].content_store 	p_hit[38] 	0.16942455893283
scalar level3_network.node[38].content_store 	hits[38] 	4331
scalar level3_network.node[38].content_store 	misses[38] 	21232
scalar level3_network.node[38].content_store 	decision_yes[38] 	511
scalar level3_network.node[38].content_store 	decision_no[38] 	20720
scalar level3_network.node[38].content_store 	decision_ratio[38] 	0.024068578964721
scalar level3_network.node[39].core_layer 	interests[39] 	13624
scalar level3_network.node[39].core_layer 	data[39] 	9065
scalar level3_network.node[39].content_store 	p_hit[39] 	0.33455666470934
scalar level3_network.node[39].content_store 	hits[39] 	4558
scalar level3_network.node[39].content_store 	misses[39] 	9066
scalar level3_network.node[39].content_store 	decision_yes[39] 	157
scalar level3_network.node[39].content_store 	decision_no[39] 	8908
scalar level3_network.node[39].content_store 	decision_ratio[39] 	0.017319360176503
scalar level3_network.node[40].core_layer 	interests[40] 	12704
scalar level3_network.node[40].core_layer 	data[40] 	8907
scalar level3_network.node[40].content_store 	p_hit[40] 	0.29872481108312
scalar level3_network.node[40].content_store 	hits[40] 	3795
scalar level3_network.node[40].content_store 	misses[40] 	8909
scalar level3_network.node[40].content_store 	decision_yes[40] 	133
scalar level3_network.node[40].content_store 	decision_no[40] 	8774
scalar level3_network.node[40].content_store 	decision_ratio[40] 	0.014932075895363
scalar level3_network.node[41].core_layer 	interests[41] 	0
scalar level3_network.node[41].core_layer 	data[41] 	0
scalar level3_network.node[41].content_store 	p_hit[41] 	-nan
scalar level3_network.node[41].content_store 	hits[41] 	0
scalar level3_network.node[41].content_store 	misses[41] 	0
scalar level3_network.node[41].content_store 	decision_yes[41] 	0
scalar level3_network.node[41].content_store 	decision_no[41] 	0
scalar level3_network.node[41].content_store 	decision_ratio[41] 	0
scalar level3_network.node[42].core_layer 	interests[42] 	13434
scalar level3_network.node[42].core_layer 	data[42] 	8896
scalar level3_network.node[42].content_store 	p_hit[42] 	0.33750186094983
scalar level3_network.node[42].content_store 	hits[42] 	4534
scalar level3_network.node[42].content_store 	misses[42] 	8900
scalar level3_network.node[42].content_store 	decision_yes[42] 	153
scalar level3_network.node[42].content_store 	decision_no[42] 	8743
scalar level3_network.node[42].content_store 	decision_ratio[42] 	0.017198741007194
scalar level3_network.node[43].core_layer 	interests[43] 	12700
scalar level3_network.node[43].core_layer 	data[43] 	8758
scalar level3_network.node[43].content_store 	p_hit[43] 	0.31055118110236
scalar level3_network.node[43].content_store 	hits[43] 	3944
scalar level3_network.node[43].content_store 	misses[43] 	8756
scalar level3_network.node[43].content_store 	decision_yes[43] 	128
scalar level3_network.node[43].content_store 	decision_no[43] 	8630
scalar level3_network.node[43].content_store 	decision_ratio[43] 	0.014615208951815
scalar level3_network.node[44].core_layer 	interests[44] 	13839
scalar level3_network.node[44].core_layer 	repo_load[44] 	11793
scalar level3_network.node[44].core_layer 	data[44] 	0
scalar level3_network.node[44].content_store 	p_hit[44] 	0.14784305224366
scalar level3_network.node[44].content_store 	hits[44] 	2046
scalar level3_network.node[44].content_store 	misses[44] 	11793
scalar level3_network.node[44].content_store 	decision_yes[44] 	513
scalar level3_network.node[44].content_store 	decision_no[44] 	11280
scalar level3_network.node[44].content_store 	decision_ratio[44] 	0.043500381582295
scalar level3_network.node[45].core_layer 	interests[45] 	13016
scalar level3_network.node[45].core_layer 	data[45] 	8914
scalar level3_network.node[45].content_store 	p_hit[45] 	0.31515058389674
scalar level3_network.node[45].content_store 	hits[45] 	4102
scalar level3_network.node[45].content_store 	misses[45] 	8914
scalar level3_network.node[45].content_store 	decision_yes[45] 	143
scalar level3_network.node[45].content_store 	decision_no[45] 	8771
scalar level3_network.node[45].content_store 	decision_ratio[45] 	0.016042180839129
scalar level3_network.client[2] 	hdistance[2] 	1.7568176132099
scalar level3_network.client[2] 	downloads[2] 	11991
scalar level3_network.client[2] 	avg_time[2] 	0.049571098931
scalar level3_network.client[3] 	hdistance[3] 	1.7605716195888
scalar level3_network.client[3] 	downloads[3] 	11966
scalar level3_network.client[3] 	avg_time[3] 	0.048332147781
scalar level3_network.client[4] 	hdistance[4] 	1.7927824009228
scalar level3_network.client[4] 	downloads[4] 	12137
scalar level3_network.client[4] 	avg_time[4] 	0.048805483602
scalar level3_network.client[6] 	hdistance[6] 	1.7339768012869
scalar level3_network.client[6] 	downloads[6] 	11811
scalar level3_network.client[6] 	avg_time[6] 	0.022113518386
scalar level3_network.client[7] 	hdistance[7] 	1.4240763802408
scalar level3_network.client[7] 	downloads[7] 	12045
scalar level3_network.client[7] 	avg_time[7] 	0.018835491978
scalar level3_network.client[8] 	hdistance[8] 	1.3385767790262
scalar level3_network.client[8] 	downloads[8] 	12015
scalar level3_network.client[8] 	avg_time[8] 	0.018055019203
scalar level3_network.client[9] 	hdistance[9] 	1.5049101198402
scalar level3_network.client[9] 	downloads[9] 	12016
scalar level3_network.client[9] 	avg_time[9] 	0.019230404324
scalar level3_network.client[11] 	hdistance[11] 	1.2791819088793
scalar level3_network.client[11] 	downloads[11] 	12028
scalar level3_network.client[11] 	avg_time[11] 	0.020590471128
scalar level3_network.client[12] 	hdistance[12] 	1.682381308722
scalar level3_network.client[12] 	downloads[12] 	12027
scalar level3_network.client[12] 	avg_time[12] 	0.027590916921
scalar level3_network.client[14] 	hdistance[14] 	1.6946152567725
scalar level3_network.client[14] 	downloads[14] 	12034
scalar level3_network.client[14] 	avg_time[14] 	0.020702437174
scalar level3_network.client[15] 	hdistance[15] 	1.6658259773014
scalar level3_network.client[15] 	downloads[15] 	11895
scalar level3_network.client[15] 	avg_time[15] 	0.029814812552
scalar level3_network.client[17] 	hdistance[17] 	1.3298168621825
scalar level3_network.client[17] 	downloads[17] 	11849
scalar level3_network.client[17] 	avg_time[17] 	0.024513145464
scalar level3_network.client[18] 	hdistance[18] 	1.2807358028858
scalar level3_network.client[18] 	downloads[18] 	11851
scalar level3_network.client[18] 	avg_time[18] 	0.019376731764
scalar level3_network.client[21] 	hdistance[21] 	2.3636961525814
scalar level3_network.client[21] 	downloads[21] 	12164
scalar level3_network.client[21] 	avg_time[21] 	0.048569114103
scalar level3_network.client[22] 	hdistance[22] 	1.6545379196022
scalar level3_network.client[22] 	downloads[22] 	12065
scalar level3_network.client[22] 	avg_time[22] 	0.022343077572
scalar level3_network.client[23] 	hdistance[23] 	1.6829774860846
scalar level3_network.client[23] 	downloads[23] 	12037
scalar level3_network.client[23] 	avg_time[23] 	0.018021969719
scalar level3_network.client[25] 	hdistance[25] 	1.6892363999335
scalar level3_network.client[25] 	downloads[25] 	12022
scalar level3_network.client[25] 	avg_time[25] 	0.018153101557
scalar level3_network.client[27] 	hdistance[27] 	1.6914176308999
scalar level3_network.client[27] 	downloads[27] 	12013
scalar level3_network.client[27] 	avg_time[27] 	0.02799911919
scalar level3_network.client[28] 	hdistance[28] 	1.6502536804458
scalar level3_network.client[28] 	downloads[28] 	12023
scalar level3_network.client[28] 	avg_time[28] 	0.026427670094
scalar level3_network.client[30] 	hdistance[30] 	1.6839841164792
scalar level3_network.client[30] 	downloads[30] 	12088
scalar level3_network.client[30] 	avg_time[30] 	0.02045749141
scalar level3_network.client[31] 	hdistance[31] 	1.7515460471335
scalar level3_network.client[31] 	downloads[31] 	11966
scalar level3_network.client[31] 	avg_time[31] 	0.032370765479
scalar level3_network.client[32] 	hdistance[32] 	1.6696752425137
scalar level3_network.client[32] 	downloads[32] 	11855
scalar level3_network.client[32] 	avg_time[32] 	0.025099475039
scalar level3_network.client[33] 	hdistance[33] 	1.6854624085163
scalar level3_network.client[33] 	downloads[33] 	12024
scalar level3_network.client[33] 	avg_time[33] 	0.024528657716
scalar level3_network.client[34] 	hdistance[34] 	1.7060506606076
scalar level3_network.client[34] 	downloads[34] 	11883
scalar level3_network.client[34] 	avg_time[34] 	0.032182898268
scalar level3_network.client[36] 	hdistance[36] 	1.6772530761556
scalar level3_network.client[36] 	downloads[36] 	12028
scalar level3_network.client[36] 	avg_time[36] 	0.020925919248
scalar level3_network.client[37] 	hdistance[37] 	1.6638822264494
scalar level3_network.client[37] 	downloads[37] 	12091
scalar level3_network.client[37] 	avg_time[37] 	0.024370766183
scalar level3_network.client[38] 	hdistance[38] 	1.666361212929
scalar level3_network.client[38] 	downloads[38] 	12004
scalar level3_network.client[38] 	avg_time[38] 	0.028893761822
scalar level3_network.client[39] 	hdistance[39] 	1.7295299784089
scalar level3_network.client[39] 	downloads[39] 	12042
scalar level3_network.client[39] 	avg_time[39] 	0.020961852825
scalar level3_network.client[40] 	hdistance[40] 	1.9100158452172
scalar level3_network.client[40] 	downloads[40] 	11991
scalar level3_network.client[40] 	avg_time[40] 	0.023861313162
scalar level3_network.client[42] 	hdistance[42] 	1.8
scalar level3_network.client[42] 	downloads[42] 	11945
scalar level3_network.client[42] 	avg_time[42] 	0.049872412674
scalar level3_network.client[43] 	hdistance[43] 	2.3723439852769
scalar level3_network.client[43] 	downloads[43] 	11954
scalar level3_network.client[43] 	avg_time[43] 	0.05144037509
scalar level3_network.client[45] 	hdistance[45] 	1.8797222451848
scalar level3_network.client[45] 	downloads[45] 	12097
scalar level3_network.client[45] 	avg_time[45] 	0.054417995402
