version 2
run General-76-20160825-23:03:34-3010
attr D ffc
attr F nrr
attr R lru
attr a 0.9
attr configname General
attr datetime 20160825-23:03:34
attr experiment General
attr inifile hw5115/scenario_C/omnetp.ini
attr iterationvars "$net=level3, $rep=9, $a=0.9, $F=nrr, $D=ffc, $R=lru, $window=60, $variance=0.05, $mytime=600"
attr iterationvars2 "$net=level3, $rep=9, $a=0.9, $F=nrr, $D=ffc, $R=lru, $window=60, $variance=0.05, $mytime=600, $repetition=0"
attr measurement "$net=level3, $rep=9, $a=0.9, $F=nrr, $D=ffc, $R=lru, $window=60, $variance=0.05, $mytime=600"
attr mytime 600
attr net level3
attr network networks.${net=level3}_network
attr processid 3010
attr rep 9
attr repetition 0
attr replication #0
attr resultdir results
attr runnumber 76
attr seedset 9
attr variance 0.05
attr window 60

scalar . 	a 	0.9
scalar . 	mytime 	600
scalar . 	rep 	9
scalar . 	variance 	0.05
scalar . 	window 	60
scalar level3_network.content_distribution 	repo-0 	1
scalar level3_network.content_distribution 	repo-1 	5
scalar level3_network.content_distribution 	repo-2 	22
scalar level3_network.content_distribution 	repo-3 	32
scalar level3_network.content_distribution 	repo-4 	3
scalar level3_network.content_distribution 	repo-5 	23
scalar level3_network.content_distribution 	repo-6 	12
scalar level3_network.content_distribution 	repo-7 	0
scalar level3_network.content_distribution 	repo-8 	44
scalar level3_network.content_distribution 	repo-9 	8
scalar level3_network.content_distribution 	repo-10 	24
scalar level3_network.content_distribution 	repo-11 	30
scalar level3_network.content_distribution 	repo-12 	43
scalar level3_network.content_distribution 	repo-13 	28
scalar level3_network.content_distribution 	repo-14 	7
scalar level3_network.content_distribution 	repo-15 	14
scalar level3_network.content_distribution 	client-0 	21
scalar level3_network.content_distribution 	client-1 	9
scalar level3_network.content_distribution 	client-2 	38
scalar level3_network.content_distribution 	client-3 	2
scalar level3_network.content_distribution 	client-4 	30
scalar level3_network.content_distribution 	client-5 	8
scalar level3_network.content_distribution 	client-6 	23
scalar level3_network.content_distribution 	client-7 	32
scalar level3_network.content_distribution 	client-8 	40
scalar level3_network.content_distribution 	client-9 	42
scalar level3_network.content_distribution 	client-10 	45
scalar level3_network.content_distribution 	client-11 	33
scalar level3_network.content_distribution 	client-12 	28
scalar level3_network.content_distribution 	client-13 	3
scalar level3_network.content_distribution 	client-14 	15
scalar level3_network.content_distribution 	client-15 	34
scalar level3_network.content_distribution 	client-16 	31
scalar level3_network.content_distribution 	client-17 	17
scalar level3_network.content_distribution 	client-18 	25
scalar level3_network.content_distribution 	client-19 	12
scalar level3_network.content_distribution 	client-20 	22
scalar level3_network.content_distribution 	client-21 	11
scalar level3_network.content_distribution 	client-22 	6
scalar level3_network.content_distribution 	client-23 	39
scalar level3_network.content_distribution 	client-24 	7
scalar level3_network.content_distribution 	client-25 	18
scalar level3_network.content_distribution 	client-26 	36
scalar level3_network.content_distribution 	client-27 	27
scalar level3_network.content_distribution 	client-28 	43
scalar level3_network.content_distribution 	client-29 	37
scalar level3_network.content_distribution 	client-30 	4
scalar level3_network.content_distribution 	client-31 	14
scalar level3_network.content_distribution 	repo-0_card 	6357
scalar level3_network.content_distribution 	repo-0_price 	0
scalar level3_network.content_distribution 	repo-1_card 	6265
scalar level3_network.content_distribution 	repo-1_price 	0
scalar level3_network.content_distribution 	repo-2_card 	6376
scalar level3_network.content_distribution 	repo-2_price 	0
scalar level3_network.content_distribution 	repo-3_card 	6158
scalar level3_network.content_distribution 	repo-3_price 	0
scalar level3_network.content_distribution 	repo-4_card 	6159
scalar level3_network.content_distribution 	repo-4_price 	0
scalar level3_network.content_distribution 	repo-5_card 	6389
scalar level3_network.content_distribution 	repo-5_price 	0
scalar level3_network.content_distribution 	repo-6_card 	6324
scalar level3_network.content_distribution 	repo-6_price 	0
scalar level3_network.content_distribution 	repo-7_card 	6320
scalar level3_network.content_distribution 	repo-7_price 	0
scalar level3_network.content_distribution 	repo-8_card 	6093
scalar level3_network.content_distribution 	repo-8_price 	0
scalar level3_network.content_distribution 	repo-9_card 	6151
scalar level3_network.content_distribution 	repo-9_price 	0
scalar level3_network.content_distribution 	repo-10_card 	6306
scalar level3_network.content_distribution 	repo-10_price 	0
scalar level3_network.content_distribution 	repo-11_card 	6181
scalar level3_network.content_distribution 	repo-11_price 	0
scalar level3_network.content_distribution 	repo-12_card 	6225
scalar level3_network.content_distribution 	repo-12_price 	0
scalar level3_network.content_distribution 	repo-13_card 	6286
scalar level3_network.content_distribution 	repo-13_price 	0
scalar level3_network.content_distribution 	repo-14_card 	6172
scalar level3_network.content_distribution 	repo-14_price 	0
scalar level3_network.content_distribution 	repo-15_card 	6238
scalar level3_network.content_distribution 	repo-15_price 	0
scalar level3_network.statistics 	stabilization_time 	1411.2
scalar level3_network.statistics 	p_hit 	0.25975376110379
scalar level3_network.statistics 	interests 	19381.913043478
scalar level3_network.statistics 	data 	11029.173913043
scalar level3_network.statistics 	hdistance 	1.8334554466147
scalar level3_network.statistics 	avg_time 	0.031707126606
scalar level3_network.statistics 	downloads 	384205
scalar level3_network.statistics 	total_cost 	0
scalar level3_network.statistics 	total_replicas 	100000
scalar level3_network.statistics 	inner_hit 	0.48752619044521
scalar level3_network.node[0].core_layer 	interests[0] 	13864
scalar level3_network.node[0].core_layer 	repo_load[0] 	11807
scalar level3_network.node[0].core_layer 	data[0] 	407
scalar level3_network.node[0].core_layer 	repo_int[0] 	196895
scalar level3_network.node[0].content_store 	p_hit[0] 	0.11901327178304
scalar level3_network.node[0].content_store 	hits[0] 	1650
scalar level3_network.node[0].content_store 	misses[0] 	12214
scalar level3_network.node[0].content_store 	decision_yes[0] 	466
scalar level3_network.node[0].content_store 	decision_no[0] 	11748
scalar level3_network.node[0].content_store 	decision_ratio[0] 	0.038152939250041
scalar level3_network.node[1].core_layer 	interests[1] 	13624
scalar level3_network.node[1].core_layer 	repo_load[1] 	12012
scalar level3_network.node[1].core_layer 	data[1] 	0
scalar level3_network.node[1].content_store 	p_hit[1] 	0.11832061068702
scalar level3_network.node[1].content_store 	hits[1] 	1612
scalar level3_network.node[1].content_store 	misses[1] 	12012
scalar level3_network.node[1].content_store 	decision_yes[1] 	507
scalar level3_network.node[1].content_store 	decision_no[1] 	11505
scalar level3_network.node[1].content_store 	decision_ratio[1] 	0.042207792207792
scalar level3_network.node[2].core_layer 	interests[2] 	50828
scalar level3_network.node[2].core_layer 	data[2] 	45989
scalar level3_network.node[2].content_store 	p_hit[2] 	0.095046037617061
scalar level3_network.node[2].content_store 	hits[2] 	4831
scalar level3_network.node[2].content_store 	misses[2] 	45997
scalar level3_network.node[2].content_store 	decision_yes[2] 	675
scalar level3_network.node[2].content_store 	decision_no[2] 	45314
scalar level3_network.node[2].content_store 	decision_ratio[2] 	0.014677422861989
scalar level3_network.node[3].core_layer 	interests[3] 	47336
scalar level3_network.node[3].core_layer 	repo_load[3] 	13368
scalar level3_network.node[3].core_layer 	data[3] 	28259
scalar level3_network.node[3].content_store 	p_hit[3] 	0.12052137907724
scalar level3_network.node[3].content_store 	hits[3] 	5705
scalar level3_network.node[3].content_store 	misses[3] 	41631
scalar level3_network.node[3].content_store 	decision_yes[3] 	567
scalar level3_network.node[3].content_store 	decision_no[3] 	41060
scalar level3_network.node[3].content_store 	decision_ratio[3] 	0.013620967160737
scalar level3_network.node[4].core_layer 	interests[4] 	13730
scalar level3_network.node[4].core_layer 	data[4] 	8982
scalar level3_network.node[4].content_store 	p_hit[4] 	0.34544792425346
scalar level3_network.node[4].content_store 	hits[4] 	4743
scalar level3_network.node[4].content_store 	misses[4] 	8987
scalar level3_network.node[4].content_store 	decision_yes[4] 	149
scalar level3_network.node[4].content_store 	decision_no[4] 	8833
scalar level3_network.node[4].content_store 	decision_ratio[4] 	0.016588733021599
scalar level3_network.node[5].core_layer 	interests[5] 	17407
scalar level3_network.node[5].core_layer 	repo_load[5] 	11541
scalar level3_network.node[5].core_layer 	data[5] 	3373
scalar level3_network.node[5].content_store 	p_hit[5] 	0.14316079738036
scalar level3_network.node[5].content_store 	hits[5] 	2492
scalar level3_network.node[5].content_store 	misses[5] 	14915
scalar level3_network.node[5].content_store 	decision_yes[5] 	412
scalar level3_network.node[5].content_store 	decision_no[5] 	14502
scalar level3_network.node[5].content_store 	decision_ratio[5] 	0.02762505028832
scalar level3_network.node[6].core_layer 	interests[6] 	13329
scalar level3_network.node[6].core_layer 	data[6] 	9029
scalar level3_network.node[6].content_store 	p_hit[6] 	0.32252982219221
scalar level3_network.node[6].content_store 	hits[6] 	4299
scalar level3_network.node[6].content_store 	misses[6] 	9030
scalar level3_network.node[6].content_store 	decision_yes[6] 	160
scalar level3_network.node[6].content_store 	decision_no[6] 	8869
scalar level3_network.node[6].content_store 	decision_ratio[6] 	0.017720677815926
scalar level3_network.node[7].core_layer 	interests[7] 	120935
scalar level3_network.node[7].core_layer 	repo_load[7] 	14065
scalar level3_network.node[7].core_layer 	data[7] 	99171
scalar level3_network.node[7].content_store 	p_hit[7] 	0.063397692975565
scalar level3_network.node[7].content_store 	hits[7] 	7667
scalar level3_network.node[7].content_store 	misses[7] 	113268
scalar level3_network.node[7].content_store 	decision_yes[7] 	976
scalar level3_network.node[7].content_store 	decision_no[7] 	112260
scalar level3_network.node[7].content_store 	decision_ratio[7] 	0.0086191670493483
scalar level3_network.node[8].core_layer 	interests[8] 	42178
scalar level3_network.node[8].core_layer 	repo_load[8] 	13381
scalar level3_network.node[8].core_layer 	data[8] 	20324
scalar level3_network.node[8].content_store 	p_hit[8] 	0.20081559106643
scalar level3_network.node[8].content_store 	hits[8] 	8470
scalar level3_network.node[8].content_store 	misses[8] 	33708
scalar level3_network.node[8].content_store 	decision_yes[8] 	630
scalar level3_network.node[8].content_store 	decision_no[8] 	33075
scalar level3_network.node[8].content_store 	decision_ratio[8] 	0.018691588785047
scalar level3_network.node[9].core_layer 	interests[9] 	16361
scalar level3_network.node[9].core_layer 	data[9] 	8966
scalar level3_network.node[9].content_store 	p_hit[9] 	0.45186724527841
scalar level3_network.node[9].content_store 	hits[9] 	7393
scalar level3_network.node[9].content_store 	misses[9] 	8968
scalar level3_network.node[9].content_store 	decision_yes[9] 	199
scalar level3_network.node[9].content_store 	decision_no[9] 	8767
scalar level3_network.node[9].content_store 	decision_ratio[9] 	0.022194958732991
scalar level3_network.node[10].core_layer 	interests[10] 	0
scalar level3_network.node[10].core_layer 	data[10] 	0
scalar level3_network.node[10].content_store 	p_hit[10] 	-nan
scalar level3_network.node[10].content_store 	hits[10] 	0
scalar level3_network.node[10].content_store 	misses[10] 	0
scalar level3_network.node[10].content_store 	decision_yes[10] 	0
scalar level3_network.node[10].content_store 	decision_no[10] 	0
scalar level3_network.node[10].content_store 	decision_ratio[10] 	0
scalar level3_network.node[11].core_layer 	interests[11] 	72414
scalar level3_network.node[11].core_layer 	data[11] 	62743
scalar level3_network.node[11].content_store 	p_hit[11] 	0.13295771535891
scalar level3_network.node[11].content_store 	hits[11] 	9628
scalar level3_network.node[11].content_store 	misses[11] 	62786
scalar level3_network.node[11].content_store 	decision_yes[11] 	640
scalar level3_network.node[11].content_store 	decision_no[11] 	62103
scalar level3_network.node[11].content_store 	decision_ratio[11] 	0.010200341073905
scalar level3_network.node[12].core_layer 	interests[12] 	25572
scalar level3_network.node[12].core_layer 	repo_load[12] 	12285
scalar level3_network.node[12].core_layer 	data[12] 	8807
scalar level3_network.node[12].content_store 	p_hit[12] 	0.1752698263726
scalar level3_network.node[12].content_store 	hits[12] 	4482
scalar level3_network.node[12].content_store 	misses[12] 	21090
scalar level3_network.node[12].content_store 	decision_yes[12] 	514
scalar level3_network.node[12].content_store 	decision_no[12] 	20578
scalar level3_network.node[12].content_store 	decision_ratio[12] 	0.024369429167457
scalar level3_network.node[13].core_layer 	interests[13] 	0
scalar level3_network.node[13].core_layer 	data[13] 	0
scalar level3_network.node[13].content_store 	p_hit[13] 	-nan
scalar level3_network.node[13].content_store 	hits[13] 	0
scalar level3_network.node[13].content_store 	misses[13] 	0
scalar level3_network.node[13].content_store 	decision_yes[13] 	0
scalar level3_network.node[13].content_store 	decision_no[13] 	0
scalar level3_network.node[13].content_store 	decision_ratio[13] 	0
scalar level3_network.node[14].core_layer 	interests[14] 	26120
scalar level3_network.node[14].core_layer 	repo_load[14] 	12314
scalar level3_network.node[14].core_layer 	data[14] 	8987
scalar level3_network.node[14].content_store 	p_hit[14] 	0.18430321592649
scalar level3_network.node[14].content_store 	hits[14] 	4814
scalar level3_network.node[14].content_store 	misses[14] 	21306
scalar level3_network.node[14].content_store 	decision_yes[14] 	482
scalar level3_network.node[14].content_store 	decision_no[14] 	20819
scalar level3_network.node[14].content_store 	decision_ratio[14] 	0.02262804563166
scalar level3_network.node[15].core_layer 	interests[15] 	13743
scalar level3_network.node[15].core_layer 	data[15] 	8931
scalar level3_network.node[15].content_store 	p_hit[15] 	0.35014189041694
scalar level3_network.node[15].content_store 	hits[15] 	4812
scalar level3_network.node[15].content_store 	misses[15] 	8931
scalar level3_network.node[15].content_store 	decision_yes[15] 	155
scalar level3_network.node[15].content_store 	decision_no[15] 	8776
scalar level3_network.node[15].content_store 	decision_ratio[15] 	0.017355279364013
scalar level3_network.node[16].core_layer 	interests[16] 	0
scalar level3_network.node[16].core_layer 	data[16] 	0
scalar level3_network.node[16].content_store 	p_hit[16] 	-nan
scalar level3_network.node[16].content_store 	hits[16] 	0
scalar level3_network.node[16].content_store 	misses[16] 	0
scalar level3_network.node[16].content_store 	decision_yes[16] 	0
scalar level3_network.node[16].content_store 	decision_no[16] 	0
scalar level3_network.node[16].content_store 	decision_ratio[16] 	0
scalar level3_network.node[17].core_layer 	interests[17] 	20556
scalar level3_network.node[17].core_layer 	data[17] 	9035
scalar level3_network.node[17].content_store 	p_hit[17] 	0.56037166763962
scalar level3_network.node[17].content_store 	hits[17] 	11519
scalar level3_network.node[17].content_store 	misses[17] 	9037
scalar level3_network.node[17].content_store 	decision_yes[17] 	184
scalar level3_network.node[17].content_store 	decision_no[17] 	8851
scalar level3_network.node[17].content_store 	decision_ratio[17] 	0.020365246264527
scalar level3_network.node[18].core_layer 	interests[18] 	27664
scalar level3_network.node[18].core_layer 	data[18] 	14892
scalar level3_network.node[18].content_store 	p_hit[18] 	0.46164690572585
scalar level3_network.node[18].content_store 	hits[18] 	12771
scalar level3_network.node[18].content_store 	misses[18] 	14893
scalar level3_network.node[18].content_store 	decision_yes[18] 	379
scalar level3_network.node[18].content_store 	decision_no[18] 	14513
scalar level3_network.node[18].content_store 	decision_ratio[18] 	0.025449905989793
scalar level3_network.node[19].core_layer 	interests[19] 	0
scalar level3_network.node[19].core_layer 	data[19] 	0
scalar level3_network.node[19].content_store 	p_hit[19] 	-nan
scalar level3_network.node[19].content_store 	hits[19] 	0
scalar level3_network.node[19].content_store 	misses[19] 	0
scalar level3_network.node[19].content_store 	decision_yes[19] 	0
scalar level3_network.node[19].content_store 	decision_no[19] 	0
scalar level3_network.node[19].content_store 	decision_ratio[19] 	0
scalar level3_network.node[20].core_layer 	interests[20] 	0
scalar level3_network.node[20].core_layer 	data[20] 	0
scalar level3_network.node[20].content_store 	p_hit[20] 	-nan
scalar level3_network.node[20].content_store 	hits[20] 	0
scalar level3_network.node[20].content_store 	misses[20] 	0
scalar level3_network.node[20].content_store 	decision_yes[20] 	0
scalar level3_network.node[20].content_store 	decision_no[20] 	0
scalar level3_network.node[20].content_store 	decision_ratio[20] 	0
scalar level3_network.node[21].core_layer 	interests[21] 	13024
scalar level3_network.node[21].core_layer 	data[21] 	8872
scalar level3_network.node[21].content_store 	p_hit[21] 	0.31887285012285
scalar level3_network.node[21].content_store 	hits[21] 	4153
scalar level3_network.node[21].content_store 	misses[21] 	8871
scalar level3_network.node[21].content_store 	decision_yes[21] 	133
scalar level3_network.node[21].content_store 	decision_no[21] 	8739
scalar level3_network.node[21].content_store 	decision_ratio[21] 	0.014990982867448
scalar level3_network.node[22].core_layer 	interests[22] 	25800
scalar level3_network.node[22].core_layer 	repo_load[22] 	12627
scalar level3_network.node[22].core_layer 	data[22] 	8781
scalar level3_network.node[22].content_store 	p_hit[22] 	0.17023255813953
scalar level3_network.node[22].content_store 	hits[22] 	4392
scalar level3_network.node[22].content_store 	misses[22] 	21408
scalar level3_network.node[22].content_store 	decision_yes[22] 	550
scalar level3_network.node[22].content_store 	decision_no[22] 	20858
scalar level3_network.node[22].content_store 	decision_ratio[22] 	0.025691330343797
scalar level3_network.node[23].core_layer 	interests[23] 	26160
scalar level3_network.node[23].core_layer 	repo_load[23] 	12708
scalar level3_network.node[23].core_layer 	data[23] 	9009
scalar level3_network.node[23].content_store 	p_hit[23] 	0.16980122324159
scalar level3_network.node[23].content_store 	hits[23] 	4442
scalar level3_network.node[23].content_store 	misses[23] 	21718
scalar level3_network.node[23].content_store 	decision_yes[23] 	496
scalar level3_network.node[23].content_store 	decision_no[23] 	21221
scalar level3_network.node[23].content_store 	decision_ratio[23] 	0.022839250356863
scalar level3_network.node[24].core_layer 	interests[24] 	14179
scalar level3_network.node[24].core_layer 	repo_load[24] 	11826
scalar level3_network.node[24].core_layer 	data[24] 	0
scalar level3_network.node[24].content_store 	p_hit[24] 	0.16594964383948
scalar level3_network.node[24].content_store 	hits[24] 	2353
scalar level3_network.node[24].content_store 	misses[24] 	11826
scalar level3_network.node[24].content_store 	decision_yes[24] 	573
scalar level3_network.node[24].content_store 	decision_no[24] 	11253
scalar level3_network.node[24].content_store 	decision_ratio[24] 	0.048452562151192
scalar level3_network.node[25].core_layer 	interests[25] 	13477
scalar level3_network.node[25].core_layer 	data[25] 	8890
scalar level3_network.node[25].content_store 	p_hit[25] 	0.34035764636047
scalar level3_network.node[25].content_store 	hits[25] 	4587
scalar level3_network.node[25].content_store 	misses[25] 	8890
scalar level3_network.node[25].content_store 	decision_yes[25] 	164
scalar level3_network.node[25].content_store 	decision_no[25] 	8726
scalar level3_network.node[25].content_store 	decision_ratio[25] 	0.018447694038245
scalar level3_network.node[26].core_layer 	interests[26] 	0
scalar level3_network.node[26].core_layer 	data[26] 	0
scalar level3_network.node[26].content_store 	p_hit[26] 	-nan
scalar level3_network.node[26].content_store 	hits[26] 	0
scalar level3_network.node[26].content_store 	misses[26] 	0
scalar level3_network.node[26].content_store 	decision_yes[26] 	0
scalar level3_network.node[26].content_store 	decision_no[26] 	0
scalar level3_network.node[26].content_store 	decision_ratio[26] 	0
scalar level3_network.node[27].core_layer 	interests[27] 	13754
scalar level3_network.node[27].core_layer 	data[27] 	9060
scalar level3_network.node[27].content_store 	p_hit[27] 	0.34128253598953
scalar level3_network.node[27].content_store 	hits[27] 	4694
scalar level3_network.node[27].content_store 	misses[27] 	9060
scalar level3_network.node[27].content_store 	decision_yes[27] 	193
scalar level3_network.node[27].content_store 	decision_no[27] 	8867
scalar level3_network.node[27].content_store 	decision_ratio[27] 	0.021302428256071
scalar level3_network.node[28].core_layer 	interests[28] 	25396
scalar level3_network.node[28].core_layer 	repo_load[28] 	12198
scalar level3_network.node[28].core_layer 	data[28] 	8826
scalar level3_network.node[28].content_store 	p_hit[28] 	0.17219247125532
scalar level3_network.node[28].content_store 	hits[28] 	4373
scalar level3_network.node[28].content_store 	misses[28] 	21023
scalar level3_network.node[28].content_store 	decision_yes[28] 	515
scalar level3_network.node[28].content_store 	decision_no[28] 	20509
scalar level3_network.node[28].content_store 	decision_ratio[28] 	0.024495814307458
scalar level3_network.node[29].core_layer 	interests[29] 	0
scalar level3_network.node[29].core_layer 	data[29] 	0
scalar level3_network.node[29].content_store 	p_hit[29] 	-nan
scalar level3_network.node[29].content_store 	hits[29] 	0
scalar level3_network.node[29].content_store 	misses[29] 	0
scalar level3_network.node[29].content_store 	decision_yes[29] 	0
scalar level3_network.node[29].content_store 	decision_no[29] 	0
scalar level3_network.node[29].content_store 	decision_ratio[29] 	0
scalar level3_network.node[30].core_layer 	interests[30] 	25519
scalar level3_network.node[30].core_layer 	repo_load[30] 	11851
scalar level3_network.node[30].core_layer 	data[30] 	9026
scalar level3_network.node[30].content_store 	p_hit[30] 	0.18194286609977
scalar level3_network.node[30].content_store 	hits[30] 	4643
scalar level3_network.node[30].content_store 	misses[30] 	20876
scalar level3_network.node[30].content_store 	decision_yes[30] 	506
scalar level3_network.node[30].content_store 	decision_no[30] 	20371
scalar level3_network.node[30].content_store 	decision_ratio[30] 	0.02423719883125
scalar level3_network.node[31].core_layer 	interests[31] 	13709
scalar level3_network.node[31].core_layer 	data[31] 	8939
scalar level3_network.node[31].content_store 	p_hit[31] 	0.34780071485885
scalar level3_network.node[31].content_store 	hits[31] 	4768
scalar level3_network.node[31].content_store 	misses[31] 	8941
scalar level3_network.node[31].content_store 	decision_yes[31] 	191
scalar level3_network.node[31].content_store 	decision_no[31] 	8748
scalar level3_network.node[31].content_store 	decision_ratio[31] 	0.021367043293433
scalar level3_network.node[32].core_layer 	interests[32] 	25611
scalar level3_network.node[32].core_layer 	repo_load[32] 	12001
scalar level3_network.node[32].core_layer 	data[32] 	9099
scalar level3_network.node[32].content_store 	p_hit[32] 	0.17613525438288
scalar level3_network.node[32].content_store 	hits[32] 	4511
scalar level3_network.node[32].content_store 	misses[32] 	21100
scalar level3_network.node[32].content_store 	decision_yes[32] 	506
scalar level3_network.node[32].content_store 	decision_no[32] 	20594
scalar level3_network.node[32].content_store 	decision_ratio[32] 	0.023981042654028
scalar level3_network.node[33].core_layer 	interests[33] 	13685
scalar level3_network.node[33].core_layer 	data[33] 	8975
scalar level3_network.node[33].content_store 	p_hit[33] 	0.34402630617464
scalar level3_network.node[33].content_store 	hits[33] 	4708
scalar level3_network.node[33].content_store 	misses[33] 	8977
scalar level3_network.node[33].content_store 	decision_yes[33] 	195
scalar level3_network.node[33].content_store 	decision_no[33] 	8780
scalar level3_network.node[33].content_store 	decision_ratio[33] 	0.021727019498607
scalar level3_network.node[34].core_layer 	interests[34] 	13842
scalar level3_network.node[34].core_layer 	data[34] 	8935
scalar level3_network.node[34].content_store 	p_hit[34] 	0.35450079468285
scalar level3_network.node[34].content_store 	hits[34] 	4907
scalar level3_network.node[34].content_store 	misses[34] 	8935
scalar level3_network.node[34].content_store 	decision_yes[34] 	169
scalar level3_network.node[34].content_store 	decision_no[34] 	8766
scalar level3_network.node[34].content_store 	decision_ratio[34] 	0.018914381645215
scalar level3_network.node[35].core_layer 	interests[35] 	0
scalar level3_network.node[35].core_layer 	data[35] 	0
scalar level3_network.node[35].content_store 	p_hit[35] 	-nan
scalar level3_network.node[35].content_store 	hits[35] 	0
scalar level3_network.node[35].content_store 	misses[35] 	0
scalar level3_network.node[35].content_store 	decision_yes[35] 	0
scalar level3_network.node[35].content_store 	decision_no[35] 	0
scalar level3_network.node[35].content_store 	decision_ratio[35] 	0
scalar level3_network.node[36].core_layer 	interests[36] 	13586
scalar level3_network.node[36].core_layer 	data[36] 	8834
scalar level3_network.node[36].content_store 	p_hit[36] 	0.34984542911821
scalar level3_network.node[36].content_store 	hits[36] 	4753
scalar level3_network.node[36].content_store 	misses[36] 	8833
scalar level3_network.node[36].content_store 	decision_yes[36] 	161
scalar level3_network.node[36].content_store 	decision_no[36] 	8673
scalar level3_network.node[36].content_store 	decision_ratio[36] 	0.018225039619651
scalar level3_network.node[37].core_layer 	interests[37] 	13460
scalar level3_network.node[37].core_layer 	data[37] 	8816
scalar level3_network.node[37].content_store 	p_hit[37] 	0.34465081723626
scalar level3_network.node[37].content_store 	hits[37] 	4639
scalar level3_network.node[37].content_store 	misses[37] 	8821
scalar level3_network.node[37].content_store 	decision_yes[37] 	171
scalar level3_network.node[37].content_store 	decision_no[37] 	8645
scalar level3_network.node[37].content_store 	decision_ratio[37] 	0.019396551724138
scalar level3_network.node[38].core_layer 	interests[38] 	13580
scalar level3_network.node[38].core_layer 	data[38] 	8931
scalar level3_network.node[38].content_store 	p_hit[38] 	0.34234167893962
scalar level3_network.node[38].content_store 	hits[38] 	4649
scalar level3_network.node[38].content_store 	misses[38] 	8931
scalar level3_network.node[38].content_store 	decision_yes[38] 	172
scalar level3_network.node[38].content_store 	decision_no[38] 	8759
scalar level3_network.node[38].content_store 	decision_ratio[38] 	0.01925876161684
scalar level3_network.node[39].core_layer 	interests[39] 	13756
scalar level3_network.node[39].core_layer 	data[39] 	8833
scalar level3_network.node[39].content_store 	p_hit[39] 	0.35780750218087
scalar level3_network.node[39].content_store 	hits[39] 	4922
scalar level3_network.node[39].content_store 	misses[39] 	8834
scalar level3_network.node[39].content_store 	decision_yes[39] 	155
scalar level3_network.node[39].content_store 	decision_no[39] 	8678
scalar level3_network.node[39].content_store 	decision_ratio[39] 	0.01754783199366
scalar level3_network.node[40].core_layer 	interests[40] 	12793
scalar level3_network.node[40].core_layer 	data[40] 	8823
scalar level3_network.node[40].content_store 	p_hit[40] 	0.31024779176112
scalar level3_network.node[40].content_store 	hits[40] 	3969
scalar level3_network.node[40].content_store 	misses[40] 	8824
scalar level3_network.node[40].content_store 	decision_yes[40] 	148
scalar level3_network.node[40].content_store 	decision_no[40] 	8675
scalar level3_network.node[40].content_store 	decision_ratio[40] 	0.016774339793721
scalar level3_network.node[41].core_layer 	interests[41] 	0
scalar level3_network.node[41].core_layer 	data[41] 	0
scalar level3_network.node[41].content_store 	p_hit[41] 	-nan
scalar level3_network.node[41].content_store 	hits[41] 	0
scalar level3_network.node[41].content_store 	misses[41] 	0
scalar level3_network.node[41].content_store 	decision_yes[41] 	0
scalar level3_network.node[41].content_store 	decision_no[41] 	0
scalar level3_network.node[41].content_store 	decision_ratio[41] 	0
scalar level3_network.node[42].core_layer 	interests[42] 	13763
scalar level3_network.node[42].core_layer 	data[42] 	8912
scalar level3_network.node[42].content_store 	p_hit[42] 	0.35239410012352
scalar level3_network.node[42].content_store 	hits[42] 	4850
scalar level3_network.node[42].content_store 	misses[42] 	8913
scalar level3_network.node[42].content_store 	decision_yes[42] 	181
scalar level3_network.node[42].content_store 	decision_no[42] 	8731
scalar level3_network.node[42].content_store 	decision_ratio[42] 	0.020309694793537
scalar level3_network.node[43].core_layer 	interests[43] 	24862
scalar level3_network.node[43].core_layer 	repo_load[43] 	12159
scalar level3_network.node[43].core_layer 	data[43] 	8814
scalar level3_network.node[43].content_store 	p_hit[43] 	0.15642345748532
scalar level3_network.node[43].content_store 	hits[43] 	3889
scalar level3_network.node[43].content_store 	misses[43] 	20973
scalar level3_network.node[43].content_store 	decision_yes[43] 	474
scalar level3_network.node[43].content_store 	decision_no[43] 	20499
scalar level3_network.node[43].content_store 	decision_ratio[43] 	0.022600486339579
scalar level3_network.node[44].core_layer 	interests[44] 	12735
scalar level3_network.node[44].core_layer 	repo_load[44] 	10752
scalar level3_network.node[44].core_layer 	data[44] 	0
scalar level3_network.node[44].content_store 	p_hit[44] 	0.15571260306243
scalar level3_network.node[44].content_store 	hits[44] 	1983
scalar level3_network.node[44].content_store 	misses[44] 	10752
scalar level3_network.node[44].content_store 	decision_yes[44] 	470
scalar level3_network.node[44].content_store 	decision_no[44] 	10282
scalar level3_network.node[44].content_store 	decision_ratio[44] 	0.043712797619048
scalar level3_network.node[45].core_layer 	interests[45] 	13216
scalar level3_network.node[45].core_layer 	data[45] 	9072
scalar level3_network.node[45].content_store 	p_hit[45] 	0.3135593220339
scalar level3_network.node[45].content_store 	hits[45] 	4144
scalar level3_network.node[45].content_store 	misses[45] 	9072
scalar level3_network.node[45].content_store 	decision_yes[45] 	152
scalar level3_network.node[45].content_store 	decision_no[45] 	8920
scalar level3_network.node[45].content_store 	decision_ratio[45] 	0.016754850088183
scalar level3_network.client[2] 	hdistance[2] 	1.7749857224443
scalar level3_network.client[2] 	downloads[2] 	12257
scalar level3_network.client[2] 	avg_time[2] 	0.040072188482
scalar level3_network.client[3] 	hdistance[3] 	1.6645198579804
scalar level3_network.client[3] 	downloads[3] 	12111
scalar level3_network.client[3] 	avg_time[3] 	0.039171760091
scalar level3_network.client[4] 	hdistance[4] 	1.8539391413089
scalar level3_network.client[4] 	downloads[4] 	11995
scalar level3_network.client[4] 	avg_time[4] 	0.038970559723
scalar level3_network.client[6] 	hdistance[6] 	1.9230769230769
scalar level3_network.client[6] 	downloads[6] 	12064
scalar level3_network.client[6] 	avg_time[6] 	0.026671110046
scalar level3_network.client[7] 	hdistance[7] 	1.4468102872411
scalar level3_network.client[7] 	downloads[7] 	11976
scalar level3_network.client[7] 	avg_time[7] 	0.021772725584
scalar level3_network.client[8] 	hdistance[8] 	1.5494440700809
scalar level3_network.client[8] 	downloads[8] 	11872
scalar level3_network.client[8] 	avg_time[8] 	0.024952935968
scalar level3_network.client[9] 	hdistance[9] 	1.6397163120567
scalar level3_network.client[9] 	downloads[9] 	11985
scalar level3_network.client[9] 	avg_time[9] 	0.026961403652
scalar level3_network.client[11] 	hdistance[11] 	1.4305704173183
scalar level3_network.client[11] 	downloads[11] 	12149
scalar level3_network.client[11] 	avg_time[11] 	0.022268856701
scalar level3_network.client[12] 	hdistance[12] 	1.835902161166
scalar level3_network.client[12] 	downloads[12] 	11938
scalar level3_network.client[12] 	avg_time[12] 	0.034261190279
scalar level3_network.client[14] 	hdistance[14] 	1.8244540039709
scalar level3_network.client[14] 	downloads[14] 	12088
scalar level3_network.client[14] 	avg_time[14] 	0.024165076278
scalar level3_network.client[15] 	hdistance[15] 	1.882037083648
scalar level3_network.client[15] 	downloads[15] 	11919
scalar level3_network.client[15] 	avg_time[15] 	0.038932626441
scalar level3_network.client[17] 	hdistance[17] 	1.4150865281113
scalar level3_network.client[17] 	downloads[17] 	12077
scalar level3_network.client[17] 	avg_time[17] 	0.03270202555
scalar level3_network.client[18] 	hdistance[18] 	1.4151748368747
scalar level3_network.client[18] 	downloads[18] 	11954
scalar level3_network.client[18] 	avg_time[18] 	0.021983118959
scalar level3_network.client[21] 	hdistance[21] 	2.302166005291
scalar level3_network.client[21] 	downloads[21] 	12096
scalar level3_network.client[21] 	avg_time[21] 	0.040478752384
scalar level3_network.client[22] 	hdistance[22] 	1.8601398601399
scalar level3_network.client[22] 	downloads[22] 	11869
scalar level3_network.client[22] 	avg_time[22] 	0.026248043716
scalar level3_network.client[23] 	hdistance[23] 	1.9033760186263
scalar level3_network.client[23] 	downloads[23] 	12026
scalar level3_network.client[23] 	avg_time[23] 	0.02299665764
scalar level3_network.client[25] 	hdistance[25] 	1.9172310007524
scalar level3_network.client[25] 	downloads[25] 	11961
scalar level3_network.client[25] 	avg_time[25] 	0.022344638857
scalar level3_network.client[27] 	hdistance[27] 	1.9096934548467
scalar level3_network.client[27] 	downloads[27] 	12070
scalar level3_network.client[27] 	avg_time[27] 	0.036182566726
scalar level3_network.client[28] 	hdistance[28] 	1.856338264963
scalar level3_network.client[28] 	downloads[28] 	11896
scalar level3_network.client[28] 	avg_time[28] 	0.030779019459
scalar level3_network.client[30] 	hdistance[30] 	1.8855132450331
scalar level3_network.client[30] 	downloads[30] 	12080
scalar level3_network.client[30] 	avg_time[30] 	0.024300496837
scalar level3_network.client[31] 	hdistance[31] 	1.9014553014553
scalar level3_network.client[31] 	downloads[31] 	12025
scalar level3_network.client[31] 	avg_time[31] 	0.039198857581
scalar level3_network.client[32] 	hdistance[32] 	1.8760241661839
scalar level3_network.client[32] 	downloads[32] 	12083
scalar level3_network.client[32] 	avg_time[32] 	0.032295906813
scalar level3_network.client[33] 	hdistance[33] 	1.8809936452917
scalar level3_network.client[33] 	downloads[33] 	12117
scalar level3_network.client[33] 	avg_time[33] 	0.030226386849
scalar level3_network.client[34] 	hdistance[34] 	1.8881409457326
scalar level3_network.client[34] 	downloads[34] 	12033
scalar level3_network.client[34] 	avg_time[34] 	0.039803900253
scalar level3_network.client[36] 	hdistance[36] 	1.9135519959319
scalar level3_network.client[36] 	downloads[36] 	11799
scalar level3_network.client[36] 	avg_time[36] 	0.025126501311
scalar level3_network.client[37] 	hdistance[37] 	1.9126213592233
scalar level3_network.client[37] 	downloads[37] 	11742
scalar level3_network.client[37] 	avg_time[37] 	0.029782762374
scalar level3_network.client[38] 	hdistance[38] 	1.9028671737858
scalar level3_network.client[38] 	downloads[38] 	11963
scalar level3_network.client[38] 	avg_time[38] 	0.03896572879
scalar level3_network.client[39] 	hdistance[39] 	1.8561181082659
scalar level3_network.client[39] 	downloads[39] 	11989
scalar level3_network.client[39] 	avg_time[39] 	0.023531918854
scalar level3_network.client[40] 	hdistance[40] 	2.1519156767609
scalar level3_network.client[40] 	downloads[40] 	11954
scalar level3_network.client[40] 	avg_time[40] 	0.029857013175
scalar level3_network.client[42] 	hdistance[42] 	1.8848540758135
scalar level3_network.client[42] 	downloads[42] 	11924
scalar level3_network.client[42] 	avg_time[42] 	0.041507907371
scalar level3_network.client[43] 	hdistance[43] 	2.3055810461333
scalar level3_network.client[43] 	downloads[43] 	11987
scalar level3_network.client[43] 	avg_time[43] 	0.042863314187
scalar level3_network.client[45] 	hdistance[45] 	1.9062756021629
scalar level3_network.client[45] 	downloads[45] 	12206
scalar level3_network.client[45] 	avg_time[45] 	0.045252100465
