version 2
run General-88-20160818-19:21:26-19481
attr a 0.9
attr cd lce
attr configname General
attr cr lru
attr datetime 20160818-19:21:26
attr experiment General
attr fsize 1
attr inifile hw5115/scenario_A/EdgeCoop.ini
attr iterationvars "$name=tree_4_3, $un=04, $rep=9, $scenario=Edge, $cd=lce, $cr=lru, $fsize=1, $a=0.9, $sl=nrr, $ttl=1000, $variance=0.05"
attr iterationvars2 "$name=tree_4_3, $un=04, $rep=9, $scenario=Edge, $cd=lce, $cr=lru, $fsize=1, $a=0.9, $sl=nrr, $ttl=1000, $variance=0.05, $repetition=0"
attr measurement "$name=tree_4_3, $un=04, $rep=9, $scenario=Edge, $cd=lce, $cr=lru, $fsize=1, $a=0.9, $sl=nrr, $ttl=1000, $variance=0.05"
attr name tree_4_3
attr network networks.${name}_u${un}_r${rep}_network
attr processid 19481
attr rep 9
attr repetition 0
attr replication #0
attr resultdir results
attr runnumber 88
attr scenario Edge
attr seedset 9
attr sl nrr
attr ttl 1000
attr un 04
attr variance 0.05

scalar . 	a 	0.9
scalar . 	fsize 	1
scalar . 	rep 	9
scalar . 	ttl 	1000
scalar . 	un 	04
scalar . 	variance 	0.05
scalar tree_4_3_u04_r9_network.content_distribution 	repo-0 	0
scalar tree_4_3_u04_r9_network.content_distribution 	client-0 	13
scalar tree_4_3_u04_r9_network.content_distribution 	client-1 	14
scalar tree_4_3_u04_r9_network.content_distribution 	client-2 	15
scalar tree_4_3_u04_r9_network.content_distribution 	client-3 	16
scalar tree_4_3_u04_r9_network.content_distribution 	client-4 	17
scalar tree_4_3_u04_r9_network.content_distribution 	client-5 	18
scalar tree_4_3_u04_r9_network.content_distribution 	client-6 	19
scalar tree_4_3_u04_r9_network.content_distribution 	client-7 	20
scalar tree_4_3_u04_r9_network.content_distribution 	client-8 	21
scalar tree_4_3_u04_r9_network.content_distribution 	client-9 	22
scalar tree_4_3_u04_r9_network.content_distribution 	client-10 	23
scalar tree_4_3_u04_r9_network.content_distribution 	client-11 	24
scalar tree_4_3_u04_r9_network.content_distribution 	client-12 	25
scalar tree_4_3_u04_r9_network.content_distribution 	client-13 	26
scalar tree_4_3_u04_r9_network.content_distribution 	client-14 	27
scalar tree_4_3_u04_r9_network.content_distribution 	client-15 	28
scalar tree_4_3_u04_r9_network.content_distribution 	client-16 	29
scalar tree_4_3_u04_r9_network.content_distribution 	client-17 	30
scalar tree_4_3_u04_r9_network.content_distribution 	client-18 	31
scalar tree_4_3_u04_r9_network.content_distribution 	client-19 	32
scalar tree_4_3_u04_r9_network.content_distribution 	client-20 	33
scalar tree_4_3_u04_r9_network.content_distribution 	client-21 	34
scalar tree_4_3_u04_r9_network.content_distribution 	client-22 	35
scalar tree_4_3_u04_r9_network.content_distribution 	client-23 	36
scalar tree_4_3_u04_r9_network.content_distribution 	client-24 	37
scalar tree_4_3_u04_r9_network.content_distribution 	client-25 	38
scalar tree_4_3_u04_r9_network.content_distribution 	client-26 	39
scalar tree_4_3_u04_r9_network.content_distribution 	repo-0_card 	100000
scalar tree_4_3_u04_r9_network.content_distribution 	repo-0_price 	0
scalar tree_4_3_u04_r9_network.statistics 	stabilization_time 	339.6
scalar tree_4_3_u04_r9_network.statistics 	p_hit 	0.19715538354381
scalar tree_4_3_u04_r9_network.statistics 	interests 	28234.175
scalar tree_4_3_u04_r9_network.statistics 	data 	20139.775
scalar tree_4_3_u04_r9_network.statistics 	hdistance 	3.1395081983989
scalar tree_4_3_u04_r9_network.statistics 	avg_time 	0.004976443921
scalar tree_4_3_u04_r9_network.statistics 	downloads 	323754
scalar tree_4_3_u04_r9_network.statistics 	total_cost 	0
scalar tree_4_3_u04_r9_network.statistics 	total_replicas 	100000
scalar tree_4_3_u04_r9_network.statistics 	inner_hit 	0.34869685007753
scalar tree_4_3_u04_r9_network.node[0].core_layer 	interests[0] 	210862
scalar tree_4_3_u04_r9_network.node[0].core_layer 	repo_load[0] 	210862
scalar tree_4_3_u04_r9_network.node[0].core_layer 	data[0] 	0
scalar tree_4_3_u04_r9_network.node[0].core_layer 	repo_int[0] 	210862
scalar tree_4_3_u04_r9_network.node[0].content_store 	p_hit[0] 	0
scalar tree_4_3_u04_r9_network.node[0].content_store 	hits[0] 	0
scalar tree_4_3_u04_r9_network.node[0].content_store 	misses[0] 	210862
scalar tree_4_3_u04_r9_network.node[0].content_store 	decision_yes[0] 	0
scalar tree_4_3_u04_r9_network.node[0].content_store 	decision_no[0] 	210862
scalar tree_4_3_u04_r9_network.node[0].content_store 	decision_ratio[0] 	0
scalar tree_4_3_u04_r9_network.node[1].core_layer 	interests[1] 	137098
scalar tree_4_3_u04_r9_network.node[1].core_layer 	data[1] 	137089
scalar tree_4_3_u04_r9_network.node[1].content_store 	p_hit[1] 	0
scalar tree_4_3_u04_r9_network.node[1].content_store 	hits[1] 	0
scalar tree_4_3_u04_r9_network.node[1].content_store 	misses[1] 	137098
scalar tree_4_3_u04_r9_network.node[1].content_store 	decision_yes[1] 	0
scalar tree_4_3_u04_r9_network.node[1].content_store 	decision_no[1] 	137070
scalar tree_4_3_u04_r9_network.node[1].content_store 	decision_ratio[1] 	0
scalar tree_4_3_u04_r9_network.node[2].core_layer 	interests[2] 	54340
scalar tree_4_3_u04_r9_network.node[2].core_layer 	data[2] 	54337
scalar tree_4_3_u04_r9_network.node[2].content_store 	p_hit[2] 	0
scalar tree_4_3_u04_r9_network.node[2].content_store 	hits[2] 	0
scalar tree_4_3_u04_r9_network.node[2].content_store 	misses[2] 	54340
scalar tree_4_3_u04_r9_network.node[2].content_store 	decision_yes[2] 	0
scalar tree_4_3_u04_r9_network.node[2].content_store 	decision_no[2] 	54336
scalar tree_4_3_u04_r9_network.node[2].content_store 	decision_ratio[2] 	0
scalar tree_4_3_u04_r9_network.node[3].core_layer 	interests[3] 	45777
scalar tree_4_3_u04_r9_network.node[3].core_layer 	data[3] 	45777
scalar tree_4_3_u04_r9_network.node[3].content_store 	p_hit[3] 	0
scalar tree_4_3_u04_r9_network.node[3].content_store 	hits[3] 	0
scalar tree_4_3_u04_r9_network.node[3].content_store 	misses[3] 	45777
scalar tree_4_3_u04_r9_network.node[3].content_store 	decision_yes[3] 	0
scalar tree_4_3_u04_r9_network.node[3].content_store 	decision_no[3] 	45775
scalar tree_4_3_u04_r9_network.node[3].content_store 	decision_ratio[3] 	0
scalar tree_4_3_u04_r9_network.node[4].core_layer 	interests[4] 	41777
scalar tree_4_3_u04_r9_network.node[4].core_layer 	data[4] 	41777
scalar tree_4_3_u04_r9_network.node[4].content_store 	p_hit[4] 	0
scalar tree_4_3_u04_r9_network.node[4].content_store 	hits[4] 	0
scalar tree_4_3_u04_r9_network.node[4].content_store 	misses[4] 	41777
scalar tree_4_3_u04_r9_network.node[4].content_store 	decision_yes[4] 	0
scalar tree_4_3_u04_r9_network.node[4].content_store 	decision_no[4] 	41773
scalar tree_4_3_u04_r9_network.node[4].content_store 	decision_ratio[4] 	0
scalar tree_4_3_u04_r9_network.node[5].core_layer 	interests[5] 	33342
scalar tree_4_3_u04_r9_network.node[5].core_layer 	data[5] 	33339
scalar tree_4_3_u04_r9_network.node[5].content_store 	p_hit[5] 	0
scalar tree_4_3_u04_r9_network.node[5].content_store 	hits[5] 	0
scalar tree_4_3_u04_r9_network.node[5].content_store 	misses[5] 	33342
scalar tree_4_3_u04_r9_network.node[5].content_store 	decision_yes[5] 	0
scalar tree_4_3_u04_r9_network.node[5].content_store 	decision_no[5] 	33334
scalar tree_4_3_u04_r9_network.node[5].content_store 	decision_ratio[5] 	0
scalar tree_4_3_u04_r9_network.node[6].core_layer 	interests[6] 	23247
scalar tree_4_3_u04_r9_network.node[6].core_layer 	data[6] 	23246
scalar tree_4_3_u04_r9_network.node[6].content_store 	p_hit[6] 	0
scalar tree_4_3_u04_r9_network.node[6].content_store 	hits[6] 	0
scalar tree_4_3_u04_r9_network.node[6].content_store 	misses[6] 	23247
scalar tree_4_3_u04_r9_network.node[6].content_store 	decision_yes[6] 	0
scalar tree_4_3_u04_r9_network.node[6].content_store 	decision_no[6] 	23244
scalar tree_4_3_u04_r9_network.node[6].content_store 	decision_ratio[6] 	0
scalar tree_4_3_u04_r9_network.node[7].core_layer 	interests[7] 	35075
scalar tree_4_3_u04_r9_network.node[7].core_layer 	data[7] 	35070
scalar tree_4_3_u04_r9_network.node[7].content_store 	p_hit[7] 	0
scalar tree_4_3_u04_r9_network.node[7].content_store 	hits[7] 	0
scalar tree_4_3_u04_r9_network.node[7].content_store 	misses[7] 	35075
scalar tree_4_3_u04_r9_network.node[7].content_store 	decision_yes[7] 	0
scalar tree_4_3_u04_r9_network.node[7].content_store 	decision_no[7] 	35065
scalar tree_4_3_u04_r9_network.node[7].content_store 	decision_ratio[7] 	0
scalar tree_4_3_u04_r9_network.node[8].core_layer 	interests[8] 	30359
scalar tree_4_3_u04_r9_network.node[8].core_layer 	data[8] 	30359
scalar tree_4_3_u04_r9_network.node[8].content_store 	p_hit[8] 	0
scalar tree_4_3_u04_r9_network.node[8].content_store 	hits[8] 	0
scalar tree_4_3_u04_r9_network.node[8].content_store 	misses[8] 	30359
scalar tree_4_3_u04_r9_network.node[8].content_store 	decision_yes[8] 	0
scalar tree_4_3_u04_r9_network.node[8].content_store 	decision_no[8] 	30355
scalar tree_4_3_u04_r9_network.node[8].content_store 	decision_ratio[8] 	0
scalar tree_4_3_u04_r9_network.node[9].core_layer 	interests[9] 	33859
scalar tree_4_3_u04_r9_network.node[9].core_layer 	data[9] 	33858
scalar tree_4_3_u04_r9_network.node[9].content_store 	p_hit[9] 	0
scalar tree_4_3_u04_r9_network.node[9].content_store 	hits[9] 	0
scalar tree_4_3_u04_r9_network.node[9].content_store 	misses[9] 	33859
scalar tree_4_3_u04_r9_network.node[9].content_store 	decision_yes[9] 	0
scalar tree_4_3_u04_r9_network.node[9].content_store 	decision_no[9] 	33857
scalar tree_4_3_u04_r9_network.node[9].content_store 	decision_ratio[9] 	0
scalar tree_4_3_u04_r9_network.node[10].core_layer 	interests[10] 	46859
scalar tree_4_3_u04_r9_network.node[10].core_layer 	data[10] 	46854
scalar tree_4_3_u04_r9_network.node[10].content_store 	p_hit[10] 	0
scalar tree_4_3_u04_r9_network.node[10].content_store 	hits[10] 	0
scalar tree_4_3_u04_r9_network.node[10].content_store 	misses[10] 	46859
scalar tree_4_3_u04_r9_network.node[10].content_store 	decision_yes[10] 	0
scalar tree_4_3_u04_r9_network.node[10].content_store 	decision_no[10] 	46845
scalar tree_4_3_u04_r9_network.node[10].content_store 	decision_ratio[10] 	0
scalar tree_4_3_u04_r9_network.node[11].core_layer 	interests[11] 	20751
scalar tree_4_3_u04_r9_network.node[11].core_layer 	data[11] 	20751
scalar tree_4_3_u04_r9_network.node[11].content_store 	p_hit[11] 	0
scalar tree_4_3_u04_r9_network.node[11].content_store 	hits[11] 	0
scalar tree_4_3_u04_r9_network.node[11].content_store 	misses[11] 	20751
scalar tree_4_3_u04_r9_network.node[11].content_store 	decision_yes[11] 	0
scalar tree_4_3_u04_r9_network.node[11].content_store 	decision_no[11] 	20749
scalar tree_4_3_u04_r9_network.node[11].content_store 	decision_ratio[11] 	0
scalar tree_4_3_u04_r9_network.node[12].core_layer 	interests[12] 	32104
scalar tree_4_3_u04_r9_network.node[12].core_layer 	data[12] 	32102
scalar tree_4_3_u04_r9_network.node[12].content_store 	p_hit[12] 	0
scalar tree_4_3_u04_r9_network.node[12].content_store 	hits[12] 	0
scalar tree_4_3_u04_r9_network.node[12].content_store 	misses[12] 	32104
scalar tree_4_3_u04_r9_network.node[12].content_store 	decision_yes[12] 	0
scalar tree_4_3_u04_r9_network.node[12].content_store 	decision_no[12] 	32101
scalar tree_4_3_u04_r9_network.node[12].content_store 	decision_ratio[12] 	0
scalar tree_4_3_u04_r9_network.node[13].core_layer 	interests[13] 	13672
scalar tree_4_3_u04_r9_network.node[13].core_layer 	data[13] 	9823
scalar tree_4_3_u04_r9_network.node[13].content_store 	p_hit[13] 	0.28145114101814
scalar tree_4_3_u04_r9_network.node[13].content_store 	hits[13] 	3848
scalar tree_4_3_u04_r9_network.node[13].content_store 	misses[13] 	9824
scalar tree_4_3_u04_r9_network.node[13].content_store 	decision_yes[13] 	9823
scalar tree_4_3_u04_r9_network.node[13].content_store 	decision_no[13] 	0
scalar tree_4_3_u04_r9_network.node[13].content_store 	decision_ratio[13] 	1
scalar tree_4_3_u04_r9_network.node[14].core_layer 	interests[14] 	14536
scalar tree_4_3_u04_r9_network.node[14].core_layer 	data[14] 	9836
scalar tree_4_3_u04_r9_network.node[14].content_store 	p_hit[14] 	0.32319757842598
scalar tree_4_3_u04_r9_network.node[14].content_store 	hits[14] 	4698
scalar tree_4_3_u04_r9_network.node[14].content_store 	misses[14] 	9838
scalar tree_4_3_u04_r9_network.node[14].content_store 	decision_yes[14] 	9836
scalar tree_4_3_u04_r9_network.node[14].content_store 	decision_no[14] 	0
scalar tree_4_3_u04_r9_network.node[14].content_store 	decision_ratio[14] 	1
scalar tree_4_3_u04_r9_network.node[15].core_layer 	interests[15] 	13962
scalar tree_4_3_u04_r9_network.node[15].core_layer 	data[15] 	10186
scalar tree_4_3_u04_r9_network.node[15].content_store 	p_hit[15] 	0.27051998281049
scalar tree_4_3_u04_r9_network.node[15].content_store 	hits[15] 	3777
scalar tree_4_3_u04_r9_network.node[15].content_store 	misses[15] 	10185
scalar tree_4_3_u04_r9_network.node[15].content_store 	decision_yes[15] 	10186
scalar tree_4_3_u04_r9_network.node[15].content_store 	decision_no[15] 	0
scalar tree_4_3_u04_r9_network.node[15].content_store 	decision_ratio[15] 	1
scalar tree_4_3_u04_r9_network.node[16].core_layer 	interests[16] 	14667
scalar tree_4_3_u04_r9_network.node[16].core_layer 	data[16] 	9991
scalar tree_4_3_u04_r9_network.node[16].content_store 	p_hit[16] 	0.31887911638372
scalar tree_4_3_u04_r9_network.node[16].content_store 	hits[16] 	4677
scalar tree_4_3_u04_r9_network.node[16].content_store 	misses[16] 	9990
scalar tree_4_3_u04_r9_network.node[16].content_store 	decision_yes[16] 	9991
scalar tree_4_3_u04_r9_network.node[16].content_store 	decision_no[16] 	0
scalar tree_4_3_u04_r9_network.node[16].content_store 	decision_ratio[16] 	1
scalar tree_4_3_u04_r9_network.node[17].core_layer 	interests[17] 	14125
scalar tree_4_3_u04_r9_network.node[17].core_layer 	data[17] 	10129
scalar tree_4_3_u04_r9_network.node[17].content_store 	p_hit[17] 	0.28283185840708
scalar tree_4_3_u04_r9_network.node[17].content_store 	hits[17] 	3995
scalar tree_4_3_u04_r9_network.node[17].content_store 	misses[17] 	10130
scalar tree_4_3_u04_r9_network.node[17].content_store 	decision_yes[17] 	10129
scalar tree_4_3_u04_r9_network.node[17].content_store 	decision_no[17] 	0
scalar tree_4_3_u04_r9_network.node[17].content_store 	decision_ratio[17] 	1
scalar tree_4_3_u04_r9_network.node[18].core_layer 	interests[18] 	14908
scalar tree_4_3_u04_r9_network.node[18].core_layer 	data[18] 	10064
scalar tree_4_3_u04_r9_network.node[18].content_store 	p_hit[18] 	0.32485913603434
scalar tree_4_3_u04_r9_network.node[18].content_store 	hits[18] 	4843
scalar tree_4_3_u04_r9_network.node[18].content_store 	misses[18] 	10065
scalar tree_4_3_u04_r9_network.node[18].content_store 	decision_yes[18] 	10064
scalar tree_4_3_u04_r9_network.node[18].content_store 	decision_no[18] 	0
scalar tree_4_3_u04_r9_network.node[18].content_store 	decision_ratio[18] 	1
scalar tree_4_3_u04_r9_network.node[19].core_layer 	interests[19] 	13840
scalar tree_4_3_u04_r9_network.node[19].core_layer 	data[19] 	10016
scalar tree_4_3_u04_r9_network.node[19].content_store 	p_hit[19] 	0.27622832369942
scalar tree_4_3_u04_r9_network.node[19].content_store 	hits[19] 	3823
scalar tree_4_3_u04_r9_network.node[19].content_store 	misses[19] 	10017
scalar tree_4_3_u04_r9_network.node[19].content_store 	decision_yes[19] 	10016
scalar tree_4_3_u04_r9_network.node[19].content_store 	decision_no[19] 	0
scalar tree_4_3_u04_r9_network.node[19].content_store 	decision_ratio[19] 	1
scalar tree_4_3_u04_r9_network.node[20].core_layer 	interests[20] 	14684
scalar tree_4_3_u04_r9_network.node[20].core_layer 	data[20] 	9947
scalar tree_4_3_u04_r9_network.node[20].content_store 	p_hit[20] 	0.32259602288205
scalar tree_4_3_u04_r9_network.node[20].content_store 	hits[20] 	4737
scalar tree_4_3_u04_r9_network.node[20].content_store 	misses[20] 	9947
scalar tree_4_3_u04_r9_network.node[20].content_store 	decision_yes[20] 	9947
scalar tree_4_3_u04_r9_network.node[20].content_store 	decision_no[20] 	0
scalar tree_4_3_u04_r9_network.node[20].content_store 	decision_ratio[20] 	1
scalar tree_4_3_u04_r9_network.node[21].core_layer 	interests[21] 	13909
scalar tree_4_3_u04_r9_network.node[21].core_layer 	data[21] 	10161
scalar tree_4_3_u04_r9_network.node[21].content_store 	p_hit[21] 	0.2693939176073
scalar tree_4_3_u04_r9_network.node[21].content_store 	hits[21] 	3747
scalar tree_4_3_u04_r9_network.node[21].content_store 	misses[21] 	10162
scalar tree_4_3_u04_r9_network.node[21].content_store 	decision_yes[21] 	10161
scalar tree_4_3_u04_r9_network.node[21].content_store 	decision_no[21] 	0
scalar tree_4_3_u04_r9_network.node[21].content_store 	decision_ratio[21] 	1
scalar tree_4_3_u04_r9_network.node[22].core_layer 	interests[22] 	14854
scalar tree_4_3_u04_r9_network.node[22].core_layer 	data[22] 	10178
scalar tree_4_3_u04_r9_network.node[22].content_store 	p_hit[22] 	0.31479736098021
scalar tree_4_3_u04_r9_network.node[22].content_store 	hits[22] 	4676
scalar tree_4_3_u04_r9_network.node[22].content_store 	misses[22] 	10178
scalar tree_4_3_u04_r9_network.node[22].content_store 	decision_yes[22] 	10178
scalar tree_4_3_u04_r9_network.node[22].content_store 	decision_no[22] 	0
scalar tree_4_3_u04_r9_network.node[22].content_store 	decision_ratio[22] 	1
scalar tree_4_3_u04_r9_network.node[23].core_layer 	interests[23] 	14860
scalar tree_4_3_u04_r9_network.node[23].core_layer 	data[23] 	9949
scalar tree_4_3_u04_r9_network.node[23].content_store 	p_hit[23] 	0.33034993270525
scalar tree_4_3_u04_r9_network.node[23].content_store 	hits[23] 	4909
scalar tree_4_3_u04_r9_network.node[23].content_store 	misses[23] 	9951
scalar tree_4_3_u04_r9_network.node[23].content_store 	decision_yes[23] 	9949
scalar tree_4_3_u04_r9_network.node[23].content_store 	decision_no[23] 	0
scalar tree_4_3_u04_r9_network.node[23].content_store 	decision_ratio[23] 	1
scalar tree_4_3_u04_r9_network.node[24].core_layer 	interests[24] 	16039
scalar tree_4_3_u04_r9_network.node[24].core_layer 	data[24] 	10141
scalar tree_4_3_u04_r9_network.node[24].content_store 	p_hit[24] 	0.36772866138787
scalar tree_4_3_u04_r9_network.node[24].content_store 	hits[24] 	5898
scalar tree_4_3_u04_r9_network.node[24].content_store 	misses[24] 	10141
scalar tree_4_3_u04_r9_network.node[24].content_store 	decision_yes[24] 	10141
scalar tree_4_3_u04_r9_network.node[24].content_store 	decision_no[24] 	0
scalar tree_4_3_u04_r9_network.node[24].content_store 	decision_ratio[24] 	1
scalar tree_4_3_u04_r9_network.node[25].core_layer 	interests[25] 	13326
scalar tree_4_3_u04_r9_network.node[25].core_layer 	data[25] 	10038
scalar tree_4_3_u04_r9_network.node[25].content_store 	p_hit[25] 	0.24673570463755
scalar tree_4_3_u04_r9_network.node[25].content_store 	hits[25] 	3288
scalar tree_4_3_u04_r9_network.node[25].content_store 	misses[25] 	10038
scalar tree_4_3_u04_r9_network.node[25].content_store 	decision_yes[25] 	10038
scalar tree_4_3_u04_r9_network.node[25].content_store 	decision_no[25] 	0
scalar tree_4_3_u04_r9_network.node[25].content_store 	decision_ratio[25] 	1
scalar tree_4_3_u04_r9_network.node[26].core_layer 	interests[26] 	13236
scalar tree_4_3_u04_r9_network.node[26].core_layer 	data[26] 	9995
scalar tree_4_3_u04_r9_network.node[26].content_store 	p_hit[26] 	0.244635841644
scalar tree_4_3_u04_r9_network.node[26].content_store 	hits[26] 	3238
scalar tree_4_3_u04_r9_network.node[26].content_store 	misses[26] 	9998
scalar tree_4_3_u04_r9_network.node[26].content_store 	decision_yes[26] 	9995
scalar tree_4_3_u04_r9_network.node[26].content_store 	decision_no[26] 	0
scalar tree_4_3_u04_r9_network.node[26].content_store 	decision_ratio[26] 	1
scalar tree_4_3_u04_r9_network.node[27].core_layer 	interests[27] 	14517
scalar tree_4_3_u04_r9_network.node[27].core_layer 	data[27] 	10081
scalar tree_4_3_u04_r9_network.node[27].content_store 	p_hit[27] 	0.30557277674451
scalar tree_4_3_u04_r9_network.node[27].content_store 	hits[27] 	4436
scalar tree_4_3_u04_r9_network.node[27].content_store 	misses[27] 	10081
scalar tree_4_3_u04_r9_network.node[27].content_store 	decision_yes[27] 	10081
scalar tree_4_3_u04_r9_network.node[27].content_store 	decision_no[27] 	0
scalar tree_4_3_u04_r9_network.node[27].content_store 	decision_ratio[27] 	1
scalar tree_4_3_u04_r9_network.node[28].core_layer 	interests[28] 	13606
scalar tree_4_3_u04_r9_network.node[28].core_layer 	data[28] 	10008
scalar tree_4_3_u04_r9_network.node[28].content_store 	p_hit[28] 	0.2643686608849
scalar tree_4_3_u04_r9_network.node[28].content_store 	hits[28] 	3597
scalar tree_4_3_u04_r9_network.node[28].content_store 	misses[28] 	10009
scalar tree_4_3_u04_r9_network.node[28].content_store 	decision_yes[28] 	10008
scalar tree_4_3_u04_r9_network.node[28].content_store 	decision_no[28] 	0
scalar tree_4_3_u04_r9_network.node[28].content_store 	decision_ratio[28] 	1
scalar tree_4_3_u04_r9_network.node[29].core_layer 	interests[29] 	13721
scalar tree_4_3_u04_r9_network.node[29].core_layer 	data[29] 	10233
scalar tree_4_3_u04_r9_network.node[29].content_store 	p_hit[29] 	0.25413599591866
scalar tree_4_3_u04_r9_network.node[29].content_store 	hits[29] 	3487
scalar tree_4_3_u04_r9_network.node[29].content_store 	misses[29] 	10234
scalar tree_4_3_u04_r9_network.node[29].content_store 	decision_yes[29] 	10233
scalar tree_4_3_u04_r9_network.node[29].content_store 	decision_no[29] 	0
scalar tree_4_3_u04_r9_network.node[29].content_store 	decision_ratio[29] 	1
scalar tree_4_3_u04_r9_network.node[30].core_layer 	interests[30] 	13743
scalar tree_4_3_u04_r9_network.node[30].core_layer 	data[30] 	10047
scalar tree_4_3_u04_r9_network.node[30].content_store 	p_hit[30] 	0.2689369133377
scalar tree_4_3_u04_r9_network.node[30].content_store 	hits[30] 	3696
scalar tree_4_3_u04_r9_network.node[30].content_store 	misses[30] 	10047
scalar tree_4_3_u04_r9_network.node[30].content_store 	decision_yes[30] 	10047
scalar tree_4_3_u04_r9_network.node[30].content_store 	decision_no[30] 	0
scalar tree_4_3_u04_r9_network.node[30].content_store 	decision_ratio[30] 	1
scalar tree_4_3_u04_r9_network.node[31].core_layer 	interests[31] 	15020
scalar tree_4_3_u04_r9_network.node[31].core_layer 	data[31] 	10147
scalar tree_4_3_u04_r9_network.node[31].content_store 	p_hit[31] 	0.32430093209055
scalar tree_4_3_u04_r9_network.node[31].content_store 	hits[31] 	4871
scalar tree_4_3_u04_r9_network.node[31].content_store 	misses[31] 	10149
scalar tree_4_3_u04_r9_network.node[31].content_store 	decision_yes[31] 	10147
scalar tree_4_3_u04_r9_network.node[31].content_store 	decision_no[31] 	0
scalar tree_4_3_u04_r9_network.node[31].content_store 	decision_ratio[31] 	1
scalar tree_4_3_u04_r9_network.node[32].core_layer 	interests[32] 	14810
scalar tree_4_3_u04_r9_network.node[32].core_layer 	data[32] 	9956
scalar tree_4_3_u04_r9_network.node[32].content_store 	p_hit[32] 	0.32768399729912
scalar tree_4_3_u04_r9_network.node[32].content_store 	hits[32] 	4853
scalar tree_4_3_u04_r9_network.node[32].content_store 	misses[32] 	9957
scalar tree_4_3_u04_r9_network.node[32].content_store 	decision_yes[32] 	9956
scalar tree_4_3_u04_r9_network.node[32].content_store 	decision_no[32] 	0
scalar tree_4_3_u04_r9_network.node[32].content_store 	decision_ratio[32] 	1
scalar tree_4_3_u04_r9_network.node[33].core_layer 	interests[33] 	14851
scalar tree_4_3_u04_r9_network.node[33].core_layer 	data[33] 	10107
scalar tree_4_3_u04_r9_network.node[33].content_store 	p_hit[33] 	0.31943976836577
scalar tree_4_3_u04_r9_network.node[33].content_store 	hits[33] 	4744
scalar tree_4_3_u04_r9_network.node[33].content_store 	misses[33] 	10107
scalar tree_4_3_u04_r9_network.node[33].content_store 	decision_yes[33] 	10107
scalar tree_4_3_u04_r9_network.node[33].content_store 	decision_no[33] 	0
scalar tree_4_3_u04_r9_network.node[33].content_store 	decision_ratio[33] 	1
scalar tree_4_3_u04_r9_network.node[34].core_layer 	interests[34] 	15636
scalar tree_4_3_u04_r9_network.node[34].core_layer 	data[34] 	9994
scalar tree_4_3_u04_r9_network.node[34].content_store 	p_hit[34] 	0.36077001790739
scalar tree_4_3_u04_r9_network.node[34].content_store 	hits[34] 	5641
scalar tree_4_3_u04_r9_network.node[34].content_store 	misses[34] 	9995
scalar tree_4_3_u04_r9_network.node[34].content_store 	decision_yes[34] 	9994
scalar tree_4_3_u04_r9_network.node[34].content_store 	decision_no[34] 	0
scalar tree_4_3_u04_r9_network.node[34].content_store 	decision_ratio[34] 	1
scalar tree_4_3_u04_r9_network.node[35].core_layer 	interests[35] 	13076
scalar tree_4_3_u04_r9_network.node[35].core_layer 	data[35] 	9935
scalar tree_4_3_u04_r9_network.node[35].content_store 	p_hit[35] 	0.24013459773631
scalar tree_4_3_u04_r9_network.node[35].content_store 	hits[35] 	3140
scalar tree_4_3_u04_r9_network.node[35].content_store 	misses[35] 	9936
scalar tree_4_3_u04_r9_network.node[35].content_store 	decision_yes[35] 	9935
scalar tree_4_3_u04_r9_network.node[35].content_store 	decision_no[35] 	0
scalar tree_4_3_u04_r9_network.node[35].content_store 	decision_ratio[35] 	1
scalar tree_4_3_u04_r9_network.node[36].core_layer 	interests[36] 	14351
scalar tree_4_3_u04_r9_network.node[36].core_layer 	data[36] 	10170
scalar tree_4_3_u04_r9_network.node[36].content_store 	p_hit[36] 	0.29126890112187
scalar tree_4_3_u04_r9_network.node[36].content_store 	hits[36] 	4180
scalar tree_4_3_u04_r9_network.node[36].content_store 	misses[36] 	10171
scalar tree_4_3_u04_r9_network.node[36].content_store 	decision_yes[36] 	10170
scalar tree_4_3_u04_r9_network.node[36].content_store 	decision_no[36] 	0
scalar tree_4_3_u04_r9_network.node[36].content_store 	decision_ratio[36] 	1
scalar tree_4_3_u04_r9_network.node[37].core_layer 	interests[37] 	13173
scalar tree_4_3_u04_r9_network.node[37].core_layer 	data[37] 	9840
scalar tree_4_3_u04_r9_network.node[37].content_store 	p_hit[37] 	0.25294162301678
scalar tree_4_3_u04_r9_network.node[37].content_store 	hits[37] 	3332
scalar tree_4_3_u04_r9_network.node[37].content_store 	misses[37] 	9841
scalar tree_4_3_u04_r9_network.node[37].content_store 	decision_yes[37] 	9840
scalar tree_4_3_u04_r9_network.node[37].content_store 	decision_no[37] 	0
scalar tree_4_3_u04_r9_network.node[37].content_store 	decision_ratio[37] 	1
scalar tree_4_3_u04_r9_network.node[38].core_layer 	interests[38] 	13338
scalar tree_4_3_u04_r9_network.node[38].core_layer 	data[38] 	10023
scalar tree_4_3_u04_r9_network.node[38].content_store 	p_hit[38] 	0.24838806417754
scalar tree_4_3_u04_r9_network.node[38].content_store 	hits[38] 	3313
scalar tree_4_3_u04_r9_network.node[38].content_store 	misses[38] 	10025
scalar tree_4_3_u04_r9_network.node[38].content_store 	decision_yes[38] 	10023
scalar tree_4_3_u04_r9_network.node[38].content_store 	decision_no[38] 	0
scalar tree_4_3_u04_r9_network.node[38].content_store 	decision_ratio[38] 	1
scalar tree_4_3_u04_r9_network.node[39].core_layer 	interests[39] 	13457
scalar tree_4_3_u04_r9_network.node[39].core_layer 	data[39] 	10037
scalar tree_4_3_u04_r9_network.node[39].content_store 	p_hit[39] 	0.25406851452776
scalar tree_4_3_u04_r9_network.node[39].content_store 	hits[39] 	3419
scalar tree_4_3_u04_r9_network.node[39].content_store 	misses[39] 	10038
scalar tree_4_3_u04_r9_network.node[39].content_store 	decision_yes[39] 	10037
scalar tree_4_3_u04_r9_network.node[39].content_store 	decision_no[39] 	0
scalar tree_4_3_u04_r9_network.node[39].content_store 	decision_ratio[39] 	1
scalar tree_4_3_u04_r9_network.client[13] 	hdistance[13] 	3.1501912452189
scalar tree_4_3_u04_r9_network.client[13] 	downloads[13] 	11765
scalar tree_4_3_u04_r9_network.client[13] 	avg_time[13] 	0.005028958393
scalar tree_4_3_u04_r9_network.client[14] 	hdistance[14] 	3.073646699474
scalar tree_4_3_u04_r9_network.client[14] 	downloads[14] 	11786
scalar tree_4_3_u04_r9_network.client[14] 	avg_time[14] 	0.004863521189
scalar tree_4_3_u04_r9_network.client[15] 	hdistance[15] 	3.1606422396048
scalar tree_4_3_u04_r9_network.client[15] 	downloads[15] 	12145
scalar tree_4_3_u04_r9_network.client[15] 	avg_time[15] 	0.005046086051
scalar tree_4_3_u04_r9_network.client[16] 	hdistance[16] 	3.0654205607477
scalar tree_4_3_u04_r9_network.client[16] 	downloads[16] 	11984
scalar tree_4_3_u04_r9_network.client[16] 	avg_time[16] 	0.004863240742
scalar tree_4_3_u04_r9_network.client[17] 	hdistance[17] 	3.115864233215
scalar tree_4_3_u04_r9_network.client[17] 	downloads[17] 	12109
scalar tree_4_3_u04_r9_network.client[17] 	avg_time[17] 	0.004957834904
scalar tree_4_3_u04_r9_network.client[18] 	hdistance[18] 	3.0453013236866
scalar tree_4_3_u04_r9_network.client[18] 	downloads[18] 	12163
scalar tree_4_3_u04_r9_network.client[18] 	avg_time[18] 	0.004825790251
scalar tree_4_3_u04_r9_network.client[19] 	hdistance[19] 	3.1772608951213
scalar tree_4_3_u04_r9_network.client[19] 	downloads[19] 	11909
scalar tree_4_3_u04_r9_network.client[19] 	avg_time[19] 	0.005070146791
scalar tree_4_3_u04_r9_network.client[20] 	hdistance[20] 	3.0927208241851
scalar tree_4_3_u04_r9_network.client[20] 	downloads[20] 	11842
scalar tree_4_3_u04_r9_network.client[20] 	avg_time[20] 	0.004900858411
scalar tree_4_3_u04_r9_network.client[21] 	hdistance[21] 	3.1758944135469
scalar tree_4_3_u04_r9_network.client[21] 	downloads[21] 	12047
scalar tree_4_3_u04_r9_network.client[21] 	avg_time[21] 	0.005069714768
scalar tree_4_3_u04_r9_network.client[22] 	hdistance[22] 	3.2157383580975
scalar tree_4_3_u04_r9_network.client[22] 	downloads[22] 	12047
scalar tree_4_3_u04_r9_network.client[22] 	avg_time[22] 	0.005199811156
scalar tree_4_3_u04_r9_network.client[23] 	hdistance[23] 	3.1707725825373
scalar tree_4_3_u04_r9_network.client[23] 	downloads[23] 	11934
scalar tree_4_3_u04_r9_network.client[23] 	avg_time[23] 	0.005129640512
scalar tree_4_3_u04_r9_network.client[24] 	hdistance[24] 	3.0900953170327
scalar tree_4_3_u04_r9_network.client[24] 	downloads[24] 	12065
scalar tree_4_3_u04_r9_network.client[24] 	avg_time[24] 	0.004939952411
scalar tree_4_3_u04_r9_network.client[25] 	hdistance[25] 	3.1676567656766
scalar tree_4_3_u04_r9_network.client[25] 	downloads[25] 	12120
scalar tree_4_3_u04_r9_network.client[25] 	avg_time[25] 	0.004974749453
scalar tree_4_3_u04_r9_network.client[26] 	hdistance[26] 	3.1903212348769
scalar tree_4_3_u04_r9_network.client[26] 	downloads[26] 	11985
scalar tree_4_3_u04_r9_network.client[26] 	avg_time[26] 	0.005019762518
scalar tree_4_3_u04_r9_network.client[27] 	hdistance[27] 	3.0688345988775
scalar tree_4_3_u04_r9_network.client[27] 	downloads[27] 	12116
scalar tree_4_3_u04_r9_network.client[27] 	avg_time[27] 	0.004766873402
scalar tree_4_3_u04_r9_network.client[28] 	hdistance[28] 	3.1218087769064
scalar tree_4_3_u04_r9_network.client[28] 	downloads[28] 	11986
scalar tree_4_3_u04_r9_network.client[28] 	avg_time[28] 	0.004878521943
scalar tree_4_3_u04_r9_network.client[29] 	hdistance[29] 	3.1555996035679
scalar tree_4_3_u04_r9_network.client[29] 	downloads[29] 	12108
scalar tree_4_3_u04_r9_network.client[29] 	avg_time[29] 	0.00492738009
scalar tree_4_3_u04_r9_network.client[30] 	hdistance[30] 	3.1228827632016
scalar tree_4_3_u04_r9_network.client[30] 	downloads[30] 	12044
scalar tree_4_3_u04_r9_network.client[30] 	avg_time[30] 	0.004872298576
scalar tree_4_3_u04_r9_network.client[31] 	hdistance[31] 	3.1541313122992
scalar tree_4_3_u04_r9_network.client[31] 	downloads[31] 	12139
scalar tree_4_3_u04_r9_network.client[31] 	avg_time[31] 	0.005075417566
scalar tree_4_3_u04_r9_network.client[32] 	hdistance[32] 	3.1743615761881
scalar tree_4_3_u04_r9_network.client[32] 	downloads[32] 	11826
scalar tree_4_3_u04_r9_network.client[32] 	avg_time[32] 	0.005104514926
scalar tree_4_3_u04_r9_network.client[33] 	hdistance[33] 	3.1736087970676
scalar tree_4_3_u04_r9_network.client[33] 	downloads[33] 	12004
scalar tree_4_3_u04_r9_network.client[33] 	avg_time[33] 	0.005111661604
scalar tree_4_3_u04_r9_network.client[34] 	hdistance[34] 	3.0827017573082
scalar tree_4_3_u04_r9_network.client[34] 	downloads[34] 	12007
scalar tree_4_3_u04_r9_network.client[34] 	avg_time[34] 	0.004933121519
scalar tree_4_3_u04_r9_network.client[35] 	hdistance[35] 	3.1911455264708
scalar tree_4_3_u04_r9_network.client[35] 	downloads[35] 	11881
scalar tree_4_3_u04_r9_network.client[35] 	avg_time[35] 	0.005011374085
scalar tree_4_3_u04_r9_network.client[36] 	hdistance[36] 	3.1196172248804
scalar tree_4_3_u04_r9_network.client[36] 	downloads[36] 	12122
scalar tree_4_3_u04_r9_network.client[36] 	avg_time[36] 	0.004865969435
scalar tree_4_3_u04_r9_network.client[37] 	hdistance[37] 	3.1638408451904
scalar tree_4_3_u04_r9_network.client[37] 	downloads[37] 	11737
scalar tree_4_3_u04_r9_network.client[37] 	avg_time[37] 	0.004967431266
scalar tree_4_3_u04_r9_network.client[38] 	hdistance[38] 	3.1909657845946
scalar tree_4_3_u04_r9_network.client[38] 	downloads[38] 	11866
scalar tree_4_3_u04_r9_network.client[38] 	avg_time[38] 	0.005010959256
scalar tree_4_3_u04_r9_network.client[39] 	hdistance[39] 	3.1556960971956
scalar tree_4_3_u04_r9_network.client[39] 	downloads[39] 	12017
scalar tree_4_3_u04_r9_network.client[39] 	avg_time[39] 	0.004948394663
