version 2
run General-81-20160818-19:16:11-19481
attr a 0.9
attr cd lce
attr configname General
attr cr lru
attr datetime 20160818-19:16:11
attr experiment General
attr fsize 1
attr inifile hw5115/scenario_A/EdgeCoop.ini
attr iterationvars "$name=tree_4_3, $un=04, $rep=2, $scenario=Edge, $cd=lce, $cr=lru, $fsize=1, $a=0.9, $sl=nrr, $ttl=1000, $variance=0.05"
attr iterationvars2 "$name=tree_4_3, $un=04, $rep=2, $scenario=Edge, $cd=lce, $cr=lru, $fsize=1, $a=0.9, $sl=nrr, $ttl=1000, $variance=0.05, $repetition=0"
attr measurement "$name=tree_4_3, $un=04, $rep=2, $scenario=Edge, $cd=lce, $cr=lru, $fsize=1, $a=0.9, $sl=nrr, $ttl=1000, $variance=0.05"
attr name tree_4_3
attr network networks.${name}_u${un}_r${rep}_network
attr processid 19481
attr rep 2
attr repetition 0
attr replication #0
attr resultdir results
attr runnumber 81
attr scenario Edge
attr seedset 2
attr sl nrr
attr ttl 1000
attr un 04
attr variance 0.05

scalar . 	a 	0.9
scalar . 	fsize 	1
scalar . 	rep 	2
scalar . 	ttl 	1000
scalar . 	un 	04
scalar . 	variance 	0.05
scalar tree_4_3_u04_r2_network.content_distribution 	repo-0 	0
scalar tree_4_3_u04_r2_network.content_distribution 	client-0 	13
scalar tree_4_3_u04_r2_network.content_distribution 	client-1 	14
scalar tree_4_3_u04_r2_network.content_distribution 	client-2 	15
scalar tree_4_3_u04_r2_network.content_distribution 	client-3 	16
scalar tree_4_3_u04_r2_network.content_distribution 	client-4 	17
scalar tree_4_3_u04_r2_network.content_distribution 	client-5 	18
scalar tree_4_3_u04_r2_network.content_distribution 	client-6 	19
scalar tree_4_3_u04_r2_network.content_distribution 	client-7 	20
scalar tree_4_3_u04_r2_network.content_distribution 	client-8 	21
scalar tree_4_3_u04_r2_network.content_distribution 	client-9 	22
scalar tree_4_3_u04_r2_network.content_distribution 	client-10 	23
scalar tree_4_3_u04_r2_network.content_distribution 	client-11 	24
scalar tree_4_3_u04_r2_network.content_distribution 	client-12 	25
scalar tree_4_3_u04_r2_network.content_distribution 	client-13 	26
scalar tree_4_3_u04_r2_network.content_distribution 	client-14 	27
scalar tree_4_3_u04_r2_network.content_distribution 	client-15 	28
scalar tree_4_3_u04_r2_network.content_distribution 	client-16 	29
scalar tree_4_3_u04_r2_network.content_distribution 	client-17 	30
scalar tree_4_3_u04_r2_network.content_distribution 	client-18 	31
scalar tree_4_3_u04_r2_network.content_distribution 	client-19 	32
scalar tree_4_3_u04_r2_network.content_distribution 	client-20 	33
scalar tree_4_3_u04_r2_network.content_distribution 	client-21 	34
scalar tree_4_3_u04_r2_network.content_distribution 	client-22 	35
scalar tree_4_3_u04_r2_network.content_distribution 	client-23 	36
scalar tree_4_3_u04_r2_network.content_distribution 	client-24 	37
scalar tree_4_3_u04_r2_network.content_distribution 	client-25 	38
scalar tree_4_3_u04_r2_network.content_distribution 	client-26 	39
scalar tree_4_3_u04_r2_network.content_distribution 	repo-0_card 	100000
scalar tree_4_3_u04_r2_network.content_distribution 	repo-0_price 	0
scalar tree_4_3_u04_r2_network.statistics 	stabilization_time 	333.5
scalar tree_4_3_u04_r2_network.statistics 	p_hit 	0.19431128900008
scalar tree_4_3_u04_r2_network.statistics 	interests 	28219.325
scalar tree_4_3_u04_r2_network.statistics 	data 	20105.375
scalar tree_4_3_u04_r2_network.statistics 	hdistance 	3.1367426172137
scalar tree_4_3_u04_r2_network.statistics 	avg_time 	0.00495582656
scalar tree_4_3_u04_r2_network.statistics 	downloads 	324541
scalar tree_4_3_u04_r2_network.statistics 	total_cost 	0
scalar tree_4_3_u04_r2_network.statistics 	total_replicas 	100000
scalar tree_4_3_u04_r2_network.statistics 	inner_hit 	0.34114333782172
scalar tree_4_3_u04_r2_network.node[0].core_layer 	interests[0] 	213826
scalar tree_4_3_u04_r2_network.node[0].core_layer 	repo_load[0] 	213826
scalar tree_4_3_u04_r2_network.node[0].core_layer 	data[0] 	0
scalar tree_4_3_u04_r2_network.node[0].core_layer 	repo_int[0] 	213826
scalar tree_4_3_u04_r2_network.node[0].content_store 	p_hit[0] 	0
scalar tree_4_3_u04_r2_network.node[0].content_store 	hits[0] 	0
scalar tree_4_3_u04_r2_network.node[0].content_store 	misses[0] 	213826
scalar tree_4_3_u04_r2_network.node[0].content_store 	decision_yes[0] 	0
scalar tree_4_3_u04_r2_network.node[0].content_store 	decision_no[0] 	213826
scalar tree_4_3_u04_r2_network.node[0].content_store 	decision_ratio[0] 	0
scalar tree_4_3_u04_r2_network.node[1].core_layer 	interests[1] 	79150
scalar tree_4_3_u04_r2_network.node[1].core_layer 	data[1] 	79146
scalar tree_4_3_u04_r2_network.node[1].content_store 	p_hit[1] 	0
scalar tree_4_3_u04_r2_network.node[1].content_store 	hits[1] 	0
scalar tree_4_3_u04_r2_network.node[1].content_store 	misses[1] 	79150
scalar tree_4_3_u04_r2_network.node[1].content_store 	decision_yes[1] 	0
scalar tree_4_3_u04_r2_network.node[1].content_store 	decision_no[1] 	79142
scalar tree_4_3_u04_r2_network.node[1].content_store 	decision_ratio[1] 	0
scalar tree_4_3_u04_r2_network.node[2].core_layer 	interests[2] 	110085
scalar tree_4_3_u04_r2_network.node[2].core_layer 	data[2] 	110080
scalar tree_4_3_u04_r2_network.node[2].content_store 	p_hit[2] 	0
scalar tree_4_3_u04_r2_network.node[2].content_store 	hits[2] 	0
scalar tree_4_3_u04_r2_network.node[2].content_store 	misses[2] 	110085
scalar tree_4_3_u04_r2_network.node[2].content_store 	decision_yes[2] 	0
scalar tree_4_3_u04_r2_network.node[2].content_store 	decision_no[2] 	110074
scalar tree_4_3_u04_r2_network.node[2].content_store 	decision_ratio[2] 	0
scalar tree_4_3_u04_r2_network.node[3].core_layer 	interests[3] 	48331
scalar tree_4_3_u04_r2_network.node[3].core_layer 	data[3] 	48329
scalar tree_4_3_u04_r2_network.node[3].content_store 	p_hit[3] 	0
scalar tree_4_3_u04_r2_network.node[3].content_store 	hits[3] 	0
scalar tree_4_3_u04_r2_network.node[3].content_store 	misses[3] 	48331
scalar tree_4_3_u04_r2_network.node[3].content_store 	decision_yes[3] 	0
scalar tree_4_3_u04_r2_network.node[3].content_store 	decision_no[3] 	48325
scalar tree_4_3_u04_r2_network.node[3].content_store 	decision_ratio[3] 	0
scalar tree_4_3_u04_r2_network.node[4].core_layer 	interests[4] 	40439
scalar tree_4_3_u04_r2_network.node[4].core_layer 	data[4] 	40438
scalar tree_4_3_u04_r2_network.node[4].content_store 	p_hit[4] 	0
scalar tree_4_3_u04_r2_network.node[4].content_store 	hits[4] 	0
scalar tree_4_3_u04_r2_network.node[4].content_store 	misses[4] 	40439
scalar tree_4_3_u04_r2_network.node[4].content_store 	decision_yes[4] 	0
scalar tree_4_3_u04_r2_network.node[4].content_store 	decision_no[4] 	40435
scalar tree_4_3_u04_r2_network.node[4].content_store 	decision_ratio[4] 	0
scalar tree_4_3_u04_r2_network.node[5].core_layer 	interests[5] 	32716
scalar tree_4_3_u04_r2_network.node[5].core_layer 	data[5] 	32714
scalar tree_4_3_u04_r2_network.node[5].content_store 	p_hit[5] 	0
scalar tree_4_3_u04_r2_network.node[5].content_store 	hits[5] 	0
scalar tree_4_3_u04_r2_network.node[5].content_store 	misses[5] 	32716
scalar tree_4_3_u04_r2_network.node[5].content_store 	decision_yes[5] 	0
scalar tree_4_3_u04_r2_network.node[5].content_store 	decision_no[5] 	32709
scalar tree_4_3_u04_r2_network.node[5].content_store 	decision_ratio[5] 	0
scalar tree_4_3_u04_r2_network.node[6].core_layer 	interests[6] 	22187
scalar tree_4_3_u04_r2_network.node[6].core_layer 	data[6] 	22182
scalar tree_4_3_u04_r2_network.node[6].content_store 	p_hit[6] 	0
scalar tree_4_3_u04_r2_network.node[6].content_store 	hits[6] 	0
scalar tree_4_3_u04_r2_network.node[6].content_store 	misses[6] 	22187
scalar tree_4_3_u04_r2_network.node[6].content_store 	decision_yes[6] 	0
scalar tree_4_3_u04_r2_network.node[6].content_store 	decision_no[6] 	22182
scalar tree_4_3_u04_r2_network.node[6].content_store 	decision_ratio[6] 	0
scalar tree_4_3_u04_r2_network.node[7].core_layer 	interests[7] 	40839
scalar tree_4_3_u04_r2_network.node[7].core_layer 	data[7] 	40839
scalar tree_4_3_u04_r2_network.node[7].content_store 	p_hit[7] 	0
scalar tree_4_3_u04_r2_network.node[7].content_store 	hits[7] 	0
scalar tree_4_3_u04_r2_network.node[7].content_store 	misses[7] 	40839
scalar tree_4_3_u04_r2_network.node[7].content_store 	decision_yes[7] 	0
scalar tree_4_3_u04_r2_network.node[7].content_store 	decision_no[7] 	40836
scalar tree_4_3_u04_r2_network.node[7].content_store 	decision_ratio[7] 	0
scalar tree_4_3_u04_r2_network.node[8].core_layer 	interests[8] 	31947
scalar tree_4_3_u04_r2_network.node[8].core_layer 	data[8] 	31947
scalar tree_4_3_u04_r2_network.node[8].content_store 	p_hit[8] 	0
scalar tree_4_3_u04_r2_network.node[8].content_store 	hits[8] 	0
scalar tree_4_3_u04_r2_network.node[8].content_store 	misses[8] 	31947
scalar tree_4_3_u04_r2_network.node[8].content_store 	decision_yes[8] 	0
scalar tree_4_3_u04_r2_network.node[8].content_store 	decision_no[8] 	31945
scalar tree_4_3_u04_r2_network.node[8].content_store 	decision_ratio[8] 	0
scalar tree_4_3_u04_r2_network.node[9].core_layer 	interests[9] 	26686
scalar tree_4_3_u04_r2_network.node[9].core_layer 	data[9] 	26683
scalar tree_4_3_u04_r2_network.node[9].content_store 	p_hit[9] 	0
scalar tree_4_3_u04_r2_network.node[9].content_store 	hits[9] 	0
scalar tree_4_3_u04_r2_network.node[9].content_store 	misses[9] 	26686
scalar tree_4_3_u04_r2_network.node[9].content_store 	decision_yes[9] 	0
scalar tree_4_3_u04_r2_network.node[9].content_store 	decision_no[9] 	26678
scalar tree_4_3_u04_r2_network.node[9].content_store 	decision_ratio[9] 	0
scalar tree_4_3_u04_r2_network.node[10].core_layer 	interests[10] 	23466
scalar tree_4_3_u04_r2_network.node[10].core_layer 	data[10] 	23462
scalar tree_4_3_u04_r2_network.node[10].content_store 	p_hit[10] 	0
scalar tree_4_3_u04_r2_network.node[10].content_store 	hits[10] 	0
scalar tree_4_3_u04_r2_network.node[10].content_store 	misses[10] 	23466
scalar tree_4_3_u04_r2_network.node[10].content_store 	decision_yes[10] 	0
scalar tree_4_3_u04_r2_network.node[10].content_store 	decision_no[10] 	23461
scalar tree_4_3_u04_r2_network.node[10].content_store 	decision_ratio[10] 	0
scalar tree_4_3_u04_r2_network.node[11].core_layer 	interests[11] 	43589
scalar tree_4_3_u04_r2_network.node[11].core_layer 	data[11] 	43588
scalar tree_4_3_u04_r2_network.node[11].content_store 	p_hit[11] 	0
scalar tree_4_3_u04_r2_network.node[11].content_store 	hits[11] 	0
scalar tree_4_3_u04_r2_network.node[11].content_store 	misses[11] 	43589
scalar tree_4_3_u04_r2_network.node[11].content_store 	decision_yes[11] 	0
scalar tree_4_3_u04_r2_network.node[11].content_store 	decision_no[11] 	43580
scalar tree_4_3_u04_r2_network.node[11].content_store 	decision_ratio[11] 	0
scalar tree_4_3_u04_r2_network.node[12].core_layer 	interests[12] 	33336
scalar tree_4_3_u04_r2_network.node[12].core_layer 	data[12] 	33332
scalar tree_4_3_u04_r2_network.node[12].content_store 	p_hit[12] 	0
scalar tree_4_3_u04_r2_network.node[12].content_store 	hits[12] 	0
scalar tree_4_3_u04_r2_network.node[12].content_store 	misses[12] 	33336
scalar tree_4_3_u04_r2_network.node[12].content_store 	decision_yes[12] 	0
scalar tree_4_3_u04_r2_network.node[12].content_store 	decision_no[12] 	33328
scalar tree_4_3_u04_r2_network.node[12].content_store 	decision_ratio[12] 	0
scalar tree_4_3_u04_r2_network.node[13].core_layer 	interests[13] 	13719
scalar tree_4_3_u04_r2_network.node[13].core_layer 	data[13] 	10178
scalar tree_4_3_u04_r2_network.node[13].content_store 	p_hit[13] 	0.25810919163204
scalar tree_4_3_u04_r2_network.node[13].content_store 	hits[13] 	3541
scalar tree_4_3_u04_r2_network.node[13].content_store 	misses[13] 	10178
scalar tree_4_3_u04_r2_network.node[13].content_store 	decision_yes[13] 	10178
scalar tree_4_3_u04_r2_network.node[13].content_store 	decision_no[13] 	0
scalar tree_4_3_u04_r2_network.node[13].content_store 	decision_ratio[13] 	1
scalar tree_4_3_u04_r2_network.node[14].core_layer 	interests[14] 	14235
scalar tree_4_3_u04_r2_network.node[14].core_layer 	data[14] 	9951
scalar tree_4_3_u04_r2_network.node[14].content_store 	p_hit[14] 	0.30094836670179
scalar tree_4_3_u04_r2_network.node[14].content_store 	hits[14] 	4284
scalar tree_4_3_u04_r2_network.node[14].content_store 	misses[14] 	9951
scalar tree_4_3_u04_r2_network.node[14].content_store 	decision_yes[14] 	9951
scalar tree_4_3_u04_r2_network.node[14].content_store 	decision_no[14] 	0
scalar tree_4_3_u04_r2_network.node[14].content_store 	decision_ratio[14] 	1
scalar tree_4_3_u04_r2_network.node[15].core_layer 	interests[15] 	13495
scalar tree_4_3_u04_r2_network.node[15].core_layer 	data[15] 	9973
scalar tree_4_3_u04_r2_network.node[15].content_store 	p_hit[15] 	0.26083734716562
scalar tree_4_3_u04_r2_network.node[15].content_store 	hits[15] 	3520
scalar tree_4_3_u04_r2_network.node[15].content_store 	misses[15] 	9975
scalar tree_4_3_u04_r2_network.node[15].content_store 	decision_yes[15] 	9973
scalar tree_4_3_u04_r2_network.node[15].content_store 	decision_no[15] 	0
scalar tree_4_3_u04_r2_network.node[15].content_store 	decision_ratio[15] 	1
scalar tree_4_3_u04_r2_network.node[16].core_layer 	interests[16] 	14350
scalar tree_4_3_u04_r2_network.node[16].core_layer 	data[16] 	9943
scalar tree_4_3_u04_r2_network.node[16].content_store 	p_hit[16] 	0.30703832752613
scalar tree_4_3_u04_r2_network.node[16].content_store 	hits[16] 	4406
scalar tree_4_3_u04_r2_network.node[16].content_store 	misses[16] 	9944
scalar tree_4_3_u04_r2_network.node[16].content_store 	decision_yes[16] 	9943
scalar tree_4_3_u04_r2_network.node[16].content_store 	decision_no[16] 	0
scalar tree_4_3_u04_r2_network.node[16].content_store 	decision_ratio[16] 	1
scalar tree_4_3_u04_r2_network.node[17].core_layer 	interests[17] 	13877
scalar tree_4_3_u04_r2_network.node[17].core_layer 	data[17] 	10324
scalar tree_4_3_u04_r2_network.node[17].content_store 	p_hit[17] 	0.25603516610218
scalar tree_4_3_u04_r2_network.node[17].content_store 	hits[17] 	3553
scalar tree_4_3_u04_r2_network.node[17].content_store 	misses[17] 	10324
scalar tree_4_3_u04_r2_network.node[17].content_store 	decision_yes[17] 	10324
scalar tree_4_3_u04_r2_network.node[17].content_store 	decision_no[17] 	0
scalar tree_4_3_u04_r2_network.node[17].content_store 	decision_ratio[17] 	1
scalar tree_4_3_u04_r2_network.node[18].core_layer 	interests[18] 	13571
scalar tree_4_3_u04_r2_network.node[18].core_layer 	data[18] 	9945
scalar tree_4_3_u04_r2_network.node[18].content_store 	p_hit[18] 	0.26711369832732
scalar tree_4_3_u04_r2_network.node[18].content_store 	hits[18] 	3625
scalar tree_4_3_u04_r2_network.node[18].content_store 	misses[18] 	9946
scalar tree_4_3_u04_r2_network.node[18].content_store 	decision_yes[18] 	9945
scalar tree_4_3_u04_r2_network.node[18].content_store 	decision_no[18] 	0
scalar tree_4_3_u04_r2_network.node[18].content_store 	decision_ratio[18] 	1
scalar tree_4_3_u04_r2_network.node[19].core_layer 	interests[19] 	13471
scalar tree_4_3_u04_r2_network.node[19].core_layer 	data[19] 	10197
scalar tree_4_3_u04_r2_network.node[19].content_store 	p_hit[19] 	0.24296637220696
scalar tree_4_3_u04_r2_network.node[19].content_store 	hits[19] 	3273
scalar tree_4_3_u04_r2_network.node[19].content_store 	misses[19] 	10198
scalar tree_4_3_u04_r2_network.node[19].content_store 	decision_yes[19] 	10197
scalar tree_4_3_u04_r2_network.node[19].content_store 	decision_no[19] 	0
scalar tree_4_3_u04_r2_network.node[19].content_store 	decision_ratio[19] 	1
scalar tree_4_3_u04_r2_network.node[20].core_layer 	interests[20] 	14388
scalar tree_4_3_u04_r2_network.node[20].core_layer 	data[20] 	9969
scalar tree_4_3_u04_r2_network.node[20].content_store 	p_hit[20] 	0.30713094245204
scalar tree_4_3_u04_r2_network.node[20].content_store 	hits[20] 	4419
scalar tree_4_3_u04_r2_network.node[20].content_store 	misses[20] 	9969
scalar tree_4_3_u04_r2_network.node[20].content_store 	decision_yes[20] 	9969
scalar tree_4_3_u04_r2_network.node[20].content_store 	decision_no[20] 	0
scalar tree_4_3_u04_r2_network.node[20].content_store 	decision_ratio[20] 	1
scalar tree_4_3_u04_r2_network.node[21].core_layer 	interests[21] 	13445
scalar tree_4_3_u04_r2_network.node[21].core_layer 	data[21] 	10124
scalar tree_4_3_u04_r2_network.node[21].content_store 	p_hit[21] 	0.24693194496095
scalar tree_4_3_u04_r2_network.node[21].content_store 	hits[21] 	3320
scalar tree_4_3_u04_r2_network.node[21].content_store 	misses[21] 	10125
scalar tree_4_3_u04_r2_network.node[21].content_store 	decision_yes[21] 	10124
scalar tree_4_3_u04_r2_network.node[21].content_store 	decision_no[21] 	0
scalar tree_4_3_u04_r2_network.node[21].content_store 	decision_ratio[21] 	1
scalar tree_4_3_u04_r2_network.node[22].core_layer 	interests[22] 	13748
scalar tree_4_3_u04_r2_network.node[22].core_layer 	data[22] 	10161
scalar tree_4_3_u04_r2_network.node[22].content_store 	p_hit[22] 	0.26083794006401
scalar tree_4_3_u04_r2_network.node[22].content_store 	hits[22] 	3586
scalar tree_4_3_u04_r2_network.node[22].content_store 	misses[22] 	10162
scalar tree_4_3_u04_r2_network.node[22].content_store 	decision_yes[22] 	10161
scalar tree_4_3_u04_r2_network.node[22].content_store 	decision_no[22] 	0
scalar tree_4_3_u04_r2_network.node[22].content_store 	decision_ratio[22] 	1
scalar tree_4_3_u04_r2_network.node[23].core_layer 	interests[23] 	14778
scalar tree_4_3_u04_r2_network.node[23].core_layer 	data[23] 	10080
scalar tree_4_3_u04_r2_network.node[23].content_store 	p_hit[23] 	0.31790499390987
scalar tree_4_3_u04_r2_network.node[23].content_store 	hits[23] 	4698
scalar tree_4_3_u04_r2_network.node[23].content_store 	misses[23] 	10080
scalar tree_4_3_u04_r2_network.node[23].content_store 	decision_yes[23] 	10080
scalar tree_4_3_u04_r2_network.node[23].content_store 	decision_no[23] 	0
scalar tree_4_3_u04_r2_network.node[23].content_store 	decision_ratio[23] 	1
scalar tree_4_3_u04_r2_network.node[24].core_layer 	interests[24] 	13570
scalar tree_4_3_u04_r2_network.node[24].core_layer 	data[24] 	10119
scalar tree_4_3_u04_r2_network.node[24].content_store 	p_hit[24] 	0.25431098010317
scalar tree_4_3_u04_r2_network.node[24].content_store 	hits[24] 	3451
scalar tree_4_3_u04_r2_network.node[24].content_store 	misses[24] 	10119
scalar tree_4_3_u04_r2_network.node[24].content_store 	decision_yes[24] 	10119
scalar tree_4_3_u04_r2_network.node[24].content_store 	decision_no[24] 	0
scalar tree_4_3_u04_r2_network.node[24].content_store 	decision_ratio[24] 	1
scalar tree_4_3_u04_r2_network.node[25].core_layer 	interests[25] 	13584
scalar tree_4_3_u04_r2_network.node[25].core_layer 	data[25] 	10031
scalar tree_4_3_u04_r2_network.node[25].content_store 	p_hit[25] 	0.26148409893993
scalar tree_4_3_u04_r2_network.node[25].content_store 	hits[25] 	3552
scalar tree_4_3_u04_r2_network.node[25].content_store 	misses[25] 	10032
scalar tree_4_3_u04_r2_network.node[25].content_store 	decision_yes[25] 	10031
scalar tree_4_3_u04_r2_network.node[25].content_store 	decision_no[25] 	0
scalar tree_4_3_u04_r2_network.node[25].content_store 	decision_ratio[25] 	1
scalar tree_4_3_u04_r2_network.node[26].core_layer 	interests[26] 	13663
scalar tree_4_3_u04_r2_network.node[26].core_layer 	data[26] 	10223
scalar tree_4_3_u04_r2_network.node[26].content_store 	p_hit[26] 	0.25162848569128
scalar tree_4_3_u04_r2_network.node[26].content_store 	hits[26] 	3438
scalar tree_4_3_u04_r2_network.node[26].content_store 	misses[26] 	10225
scalar tree_4_3_u04_r2_network.node[26].content_store 	decision_yes[26] 	10223
scalar tree_4_3_u04_r2_network.node[26].content_store 	decision_no[26] 	0
scalar tree_4_3_u04_r2_network.node[26].content_store 	decision_ratio[26] 	1
scalar tree_4_3_u04_r2_network.node[27].core_layer 	interests[27] 	15541
scalar tree_4_3_u04_r2_network.node[27].core_layer 	data[27] 	10019
scalar tree_4_3_u04_r2_network.node[27].content_store 	p_hit[27] 	0.35531819059263
scalar tree_4_3_u04_r2_network.node[27].content_store 	hits[27] 	5522
scalar tree_4_3_u04_r2_network.node[27].content_store 	misses[27] 	10019
scalar tree_4_3_u04_r2_network.node[27].content_store 	decision_yes[27] 	10019
scalar tree_4_3_u04_r2_network.node[27].content_store 	decision_no[27] 	0
scalar tree_4_3_u04_r2_network.node[27].content_store 	decision_ratio[27] 	1
scalar tree_4_3_u04_r2_network.node[28].core_layer 	interests[28] 	15335
scalar tree_4_3_u04_r2_network.node[28].core_layer 	data[28] 	9865
scalar tree_4_3_u04_r2_network.node[28].content_store 	p_hit[28] 	0.3567655689599
scalar tree_4_3_u04_r2_network.node[28].content_store 	hits[28] 	5471
scalar tree_4_3_u04_r2_network.node[28].content_store 	misses[28] 	9864
scalar tree_4_3_u04_r2_network.node[28].content_store 	decision_yes[28] 	9865
scalar tree_4_3_u04_r2_network.node[28].content_store 	decision_no[28] 	0
scalar tree_4_3_u04_r2_network.node[28].content_store 	decision_ratio[28] 	1
scalar tree_4_3_u04_r2_network.node[29].core_layer 	interests[29] 	14219
scalar tree_4_3_u04_r2_network.node[29].core_layer 	data[29] 	9880
scalar tree_4_3_u04_r2_network.node[29].content_store 	p_hit[29] 	0.3051550741965
scalar tree_4_3_u04_r2_network.node[29].content_store 	hits[29] 	4339
scalar tree_4_3_u04_r2_network.node[29].content_store 	misses[29] 	9880
scalar tree_4_3_u04_r2_network.node[29].content_store 	decision_yes[29] 	9880
scalar tree_4_3_u04_r2_network.node[29].content_store 	decision_no[29] 	0
scalar tree_4_3_u04_r2_network.node[29].content_store 	decision_ratio[29] 	1
scalar tree_4_3_u04_r2_network.node[30].core_layer 	interests[30] 	14322
scalar tree_4_3_u04_r2_network.node[30].core_layer 	data[30] 	9959
scalar tree_4_3_u04_r2_network.node[30].content_store 	p_hit[30] 	0.30463622399106
scalar tree_4_3_u04_r2_network.node[30].content_store 	hits[30] 	4363
scalar tree_4_3_u04_r2_network.node[30].content_store 	misses[30] 	9959
scalar tree_4_3_u04_r2_network.node[30].content_store 	decision_yes[30] 	9959
scalar tree_4_3_u04_r2_network.node[30].content_store 	decision_no[30] 	0
scalar tree_4_3_u04_r2_network.node[30].content_store 	decision_ratio[30] 	1
scalar tree_4_3_u04_r2_network.node[31].core_layer 	interests[31] 	13635
scalar tree_4_3_u04_r2_network.node[31].core_layer 	data[31] 	10137
scalar tree_4_3_u04_r2_network.node[31].content_store 	p_hit[31] 	0.25639897323066
scalar tree_4_3_u04_r2_network.node[31].content_store 	hits[31] 	3496
scalar tree_4_3_u04_r2_network.node[31].content_store 	misses[31] 	10139
scalar tree_4_3_u04_r2_network.node[31].content_store 	decision_yes[31] 	10137
scalar tree_4_3_u04_r2_network.node[31].content_store 	decision_no[31] 	0
scalar tree_4_3_u04_r2_network.node[31].content_store 	decision_ratio[31] 	1
scalar tree_4_3_u04_r2_network.node[32].core_layer 	interests[32] 	15483
scalar tree_4_3_u04_r2_network.node[32].core_layer 	data[32] 	9944
scalar tree_4_3_u04_r2_network.node[32].content_store 	p_hit[32] 	0.35768261964736
scalar tree_4_3_u04_r2_network.node[32].content_store 	hits[32] 	5538
scalar tree_4_3_u04_r2_network.node[32].content_store 	misses[32] 	9945
scalar tree_4_3_u04_r2_network.node[32].content_store 	decision_yes[32] 	9944
scalar tree_4_3_u04_r2_network.node[32].content_store 	decision_no[32] 	0
scalar tree_4_3_u04_r2_network.node[32].content_store 	decision_ratio[32] 	1
scalar tree_4_3_u04_r2_network.node[33].core_layer 	interests[33] 	13625
scalar tree_4_3_u04_r2_network.node[33].core_layer 	data[33] 	10131
scalar tree_4_3_u04_r2_network.node[33].content_store 	p_hit[33] 	0.25651376146789
scalar tree_4_3_u04_r2_network.node[33].content_store 	hits[33] 	3495
scalar tree_4_3_u04_r2_network.node[33].content_store 	misses[33] 	10130
scalar tree_4_3_u04_r2_network.node[33].content_store 	decision_yes[33] 	10131
scalar tree_4_3_u04_r2_network.node[33].content_store 	decision_no[33] 	0
scalar tree_4_3_u04_r2_network.node[33].content_store 	decision_ratio[33] 	1
scalar tree_4_3_u04_r2_network.node[34].core_layer 	interests[34] 	14509
scalar tree_4_3_u04_r2_network.node[34].core_layer 	data[34] 	10099
scalar tree_4_3_u04_r2_network.node[34].content_store 	p_hit[34] 	0.30388035012751
scalar tree_4_3_u04_r2_network.node[34].content_store 	hits[34] 	4409
scalar tree_4_3_u04_r2_network.node[34].content_store 	misses[34] 	10100
scalar tree_4_3_u04_r2_network.node[34].content_store 	decision_yes[34] 	10099
scalar tree_4_3_u04_r2_network.node[34].content_store 	decision_no[34] 	0
scalar tree_4_3_u04_r2_network.node[34].content_store 	decision_ratio[34] 	1
scalar tree_4_3_u04_r2_network.node[35].core_layer 	interests[35] 	14453
scalar tree_4_3_u04_r2_network.node[35].core_layer 	data[35] 	10027
scalar tree_4_3_u04_r2_network.node[35].content_store 	p_hit[35] 	0.30616481007403
scalar tree_4_3_u04_r2_network.node[35].content_store 	hits[35] 	4425
scalar tree_4_3_u04_r2_network.node[35].content_store 	misses[35] 	10028
scalar tree_4_3_u04_r2_network.node[35].content_store 	decision_yes[35] 	10027
scalar tree_4_3_u04_r2_network.node[35].content_store 	decision_no[35] 	0
scalar tree_4_3_u04_r2_network.node[35].content_store 	decision_ratio[35] 	1
scalar tree_4_3_u04_r2_network.node[36].core_layer 	interests[36] 	15904
scalar tree_4_3_u04_r2_network.node[36].core_layer 	data[36] 	10118
scalar tree_4_3_u04_r2_network.node[36].content_store 	p_hit[36] 	0.36380784708249
scalar tree_4_3_u04_r2_network.node[36].content_store 	hits[36] 	5786
scalar tree_4_3_u04_r2_network.node[36].content_store 	misses[36] 	10118
scalar tree_4_3_u04_r2_network.node[36].content_store 	decision_yes[36] 	10118
scalar tree_4_3_u04_r2_network.node[36].content_store 	decision_no[36] 	0
scalar tree_4_3_u04_r2_network.node[36].content_store 	decision_ratio[36] 	1
scalar tree_4_3_u04_r2_network.node[37].core_layer 	interests[37] 	13562
scalar tree_4_3_u04_r2_network.node[37].core_layer 	data[37] 	9808
scalar tree_4_3_u04_r2_network.node[37].content_store 	p_hit[37] 	0.27680283144079
scalar tree_4_3_u04_r2_network.node[37].content_store 	hits[37] 	3754
scalar tree_4_3_u04_r2_network.node[37].content_store 	misses[37] 	9808
scalar tree_4_3_u04_r2_network.node[37].content_store 	decision_yes[37] 	9808
scalar tree_4_3_u04_r2_network.node[37].content_store 	decision_no[37] 	0
scalar tree_4_3_u04_r2_network.node[37].content_store 	decision_ratio[37] 	1
scalar tree_4_3_u04_r2_network.node[38].core_layer 	interests[38] 	13879
scalar tree_4_3_u04_r2_network.node[38].core_layer 	data[38] 	10082
scalar tree_4_3_u04_r2_network.node[38].content_store 	p_hit[38] 	0.2735067367966
scalar tree_4_3_u04_r2_network.node[38].content_store 	hits[38] 	3796
scalar tree_4_3_u04_r2_network.node[38].content_store 	misses[38] 	10083
scalar tree_4_3_u04_r2_network.node[38].content_store 	decision_yes[38] 	10082
scalar tree_4_3_u04_r2_network.node[38].content_store 	decision_no[38] 	0
scalar tree_4_3_u04_r2_network.node[38].content_store 	decision_ratio[38] 	1
scalar tree_4_3_u04_r2_network.node[39].core_layer 	interests[39] 	13815
scalar tree_4_3_u04_r2_network.node[39].core_layer 	data[39] 	10188
scalar tree_4_3_u04_r2_network.node[39].content_store 	p_hit[39] 	0.26254071661238
scalar tree_4_3_u04_r2_network.node[39].content_store 	hits[39] 	3627
scalar tree_4_3_u04_r2_network.node[39].content_store 	misses[39] 	10188
scalar tree_4_3_u04_r2_network.node[39].content_store 	decision_yes[39] 	10188
scalar tree_4_3_u04_r2_network.node[39].content_store 	decision_no[39] 	0
scalar tree_4_3_u04_r2_network.node[39].content_store 	decision_ratio[39] 	1
scalar tree_4_3_u04_r2_network.client[13] 	hdistance[13] 	3.142997784888
scalar tree_4_3_u04_r2_network.client[13] 	downloads[13] 	12189
scalar tree_4_3_u04_r2_network.client[13] 	avg_time[13] 	0.004917530752
scalar tree_4_3_u04_r2_network.client[14] 	hdistance[14] 	3.0634814567324
scalar tree_4_3_u04_r2_network.client[14] 	downloads[14] 	11972
scalar tree_4_3_u04_r2_network.client[14] 	avg_time[14] 	0.004759272278
scalar tree_4_3_u04_r2_network.client[15] 	hdistance[15] 	3.1459170013387
scalar tree_4_3_u04_r2_network.client[15] 	downloads[15] 	11952
scalar tree_4_3_u04_r2_network.client[15] 	avg_time[15] 	0.004925751278
scalar tree_4_3_u04_r2_network.client[16] 	hdistance[16] 	3.0842078750735
scalar tree_4_3_u04_r2_network.client[16] 	downloads[16] 	11911
scalar tree_4_3_u04_r2_network.client[16] 	avg_time[16] 	0.0047857263
scalar tree_4_3_u04_r2_network.client[17] 	hdistance[17] 	3.138968131062
scalar tree_4_3_u04_r2_network.client[17] 	downloads[17] 	12269
scalar tree_4_3_u04_r2_network.client[17] 	avg_time[17] 	0.004904390122
scalar tree_4_3_u04_r2_network.client[18] 	hdistance[18] 	3.1216193515874
scalar tree_4_3_u04_r2_network.client[18] 	downloads[18] 	11906
scalar tree_4_3_u04_r2_network.client[18] 	avg_time[18] 	0.004865728245
scalar tree_4_3_u04_r2_network.client[19] 	hdistance[19] 	3.2237450462351
scalar tree_4_3_u04_r2_network.client[19] 	downloads[19] 	12112
scalar tree_4_3_u04_r2_network.client[19] 	avg_time[19] 	0.005063853279
scalar tree_4_3_u04_r2_network.client[20] 	hdistance[20] 	3.072950614189
scalar tree_4_3_u04_r2_network.client[20] 	downloads[20] 	11967
scalar tree_4_3_u04_r2_network.client[20] 	avg_time[20] 	0.004773457333
scalar tree_4_3_u04_r2_network.client[21] 	hdistance[21] 	3.2008278145695
scalar tree_4_3_u04_r2_network.client[21] 	downloads[21] 	12080
scalar tree_4_3_u04_r2_network.client[21] 	avg_time[21] 	0.005032654039
scalar tree_4_3_u04_r2_network.client[22] 	hdistance[22] 	3.1746504508977
scalar tree_4_3_u04_r2_network.client[22] 	downloads[22] 	12087
scalar tree_4_3_u04_r2_network.client[22] 	avg_time[22] 	0.005041796499
scalar tree_4_3_u04_r2_network.client[23] 	hdistance[23] 	3.0702219277907
scalar tree_4_3_u04_r2_network.client[23] 	downloads[23] 	12076
scalar tree_4_3_u04_r2_network.client[23] 	avg_time[23] 	0.004831398123
scalar tree_4_3_u04_r2_network.client[24] 	hdistance[24] 	3.1895326477719
scalar tree_4_3_u04_r2_network.client[24] 	downloads[24] 	11961
scalar tree_4_3_u04_r2_network.client[24] 	avg_time[24] 	0.005056731423
scalar tree_4_3_u04_r2_network.client[25] 	hdistance[25] 	3.1635541411942
scalar tree_4_3_u04_r2_network.client[25] 	downloads[25] 	11941
scalar tree_4_3_u04_r2_network.client[25] 	avg_time[25] 	0.005014687876
scalar tree_4_3_u04_r2_network.client[26] 	hdistance[26] 	3.2013934970139
scalar tree_4_3_u04_r2_network.client[26] 	downloads[26] 	12056
scalar tree_4_3_u04_r2_network.client[26] 	avg_time[26] 	0.005065146373
scalar tree_4_3_u04_r2_network.client[27] 	hdistance[27] 	3.0535714285714
scalar tree_4_3_u04_r2_network.client[27] 	downloads[27] 	12096
scalar tree_4_3_u04_r2_network.client[27] 	avg_time[27] 	0.004854990372
scalar tree_4_3_u04_r2_network.client[28] 	hdistance[28] 	3.0460145838572
scalar tree_4_3_u04_r2_network.client[28] 	downloads[28] 	11931
scalar tree_4_3_u04_r2_network.client[28] 	avg_time[28] 	0.004833828603
scalar tree_4_3_u04_r2_network.client[29] 	hdistance[29] 	3.1414073071719
scalar tree_4_3_u04_r2_network.client[29] 	downloads[29] 	11824
scalar tree_4_3_u04_r2_network.client[29] 	avg_time[29] 	0.005019452663
scalar tree_4_3_u04_r2_network.client[30] 	hdistance[30] 	3.1390562248996
scalar tree_4_3_u04_r2_network.client[30] 	downloads[30] 	11952
scalar tree_4_3_u04_r2_network.client[30] 	avg_time[30] 	0.005025641525
scalar tree_4_3_u04_r2_network.client[31] 	hdistance[31] 	3.2118594801096
scalar tree_4_3_u04_r2_network.client[31] 	downloads[31] 	12041
scalar tree_4_3_u04_r2_network.client[31] 	avg_time[31] 	0.005110864299
scalar tree_4_3_u04_r2_network.client[32] 	hdistance[32] 	3.076050700467
scalar tree_4_3_u04_r2_network.client[32] 	downloads[32] 	11992
scalar tree_4_3_u04_r2_network.client[32] 	avg_time[32] 	0.004890615425
scalar tree_4_3_u04_r2_network.client[33] 	hdistance[33] 	3.1991725279272
scalar tree_4_3_u04_r2_network.client[33] 	downloads[33] 	12085
scalar tree_4_3_u04_r2_network.client[33] 	avg_time[33] 	0.005088061017
scalar tree_4_3_u04_r2_network.client[34] 	hdistance[34] 	3.1488549618321
scalar tree_4_3_u04_r2_network.client[34] 	downloads[34] 	12052
scalar tree_4_3_u04_r2_network.client[34] 	avg_time[34] 	0.005035222387
scalar tree_4_3_u04_r2_network.client[35] 	hdistance[35] 	3.1465754567448
scalar tree_4_3_u04_r2_network.client[35] 	downloads[35] 	11987
scalar tree_4_3_u04_r2_network.client[35] 	avg_time[35] 	0.005036180507
scalar tree_4_3_u04_r2_network.client[36] 	hdistance[36] 	3.0343421159964
scalar tree_4_3_u04_r2_network.client[36] 	downloads[36] 	12259
scalar tree_4_3_u04_r2_network.client[36] 	avg_time[36] 	0.004816376753
scalar tree_4_3_u04_r2_network.client[37] 	hdistance[37] 	3.1539247403371
scalar tree_4_3_u04_r2_network.client[37] 	downloads[37] 	11746
scalar tree_4_3_u04_r2_network.client[37] 	avg_time[37] 	0.005000141681
scalar tree_4_3_u04_r2_network.client[38] 	hdistance[38] 	3.1606846128282
scalar tree_4_3_u04_r2_network.client[38] 	downloads[38] 	12036
scalar tree_4_3_u04_r2_network.client[38] 	avg_time[38] 	0.005011488169
scalar tree_4_3_u04_r2_network.client[39] 	hdistance[39] 	3.1864687836829
scalar tree_4_3_u04_r2_network.client[39] 	downloads[39] 	12061
scalar tree_4_3_u04_r2_network.client[39] 	avg_time[39] 	0.0050463298
