version 2
run General-83-20160818-19:17:40-19481
attr a 0.9
attr cd lce
attr configname General
attr cr lru
attr datetime 20160818-19:17:40
attr experiment General
attr fsize 1
attr inifile hw5115/scenario_A/EdgeCoop.ini
attr iterationvars "$name=tree_4_3, $un=04, $rep=4, $scenario=Edge, $cd=lce, $cr=lru, $fsize=1, $a=0.9, $sl=nrr, $ttl=1000, $variance=0.05"
attr iterationvars2 "$name=tree_4_3, $un=04, $rep=4, $scenario=Edge, $cd=lce, $cr=lru, $fsize=1, $a=0.9, $sl=nrr, $ttl=1000, $variance=0.05, $repetition=0"
attr measurement "$name=tree_4_3, $un=04, $rep=4, $scenario=Edge, $cd=lce, $cr=lru, $fsize=1, $a=0.9, $sl=nrr, $ttl=1000, $variance=0.05"
attr name tree_4_3
attr network networks.${name}_u${un}_r${rep}_network
attr processid 19481
attr rep 4
attr repetition 0
attr replication #0
attr resultdir results
attr runnumber 83
attr scenario Edge
attr seedset 4
attr sl nrr
attr ttl 1000
attr un 04
attr variance 0.05

scalar . 	a 	0.9
scalar . 	fsize 	1
scalar . 	rep 	4
scalar . 	ttl 	1000
scalar . 	un 	04
scalar . 	variance 	0.05
scalar tree_4_3_u04_r4_network.content_distribution 	repo-0 	0
scalar tree_4_3_u04_r4_network.content_distribution 	client-0 	13
scalar tree_4_3_u04_r4_network.content_distribution 	client-1 	14
scalar tree_4_3_u04_r4_network.content_distribution 	client-2 	15
scalar tree_4_3_u04_r4_network.content_distribution 	client-3 	16
scalar tree_4_3_u04_r4_network.content_distribution 	client-4 	17
scalar tree_4_3_u04_r4_network.content_distribution 	client-5 	18
scalar tree_4_3_u04_r4_network.content_distribution 	client-6 	19
scalar tree_4_3_u04_r4_network.content_distribution 	client-7 	20
scalar tree_4_3_u04_r4_network.content_distribution 	client-8 	21
scalar tree_4_3_u04_r4_network.content_distribution 	client-9 	22
scalar tree_4_3_u04_r4_network.content_distribution 	client-10 	23
scalar tree_4_3_u04_r4_network.content_distribution 	client-11 	24
scalar tree_4_3_u04_r4_network.content_distribution 	client-12 	25
scalar tree_4_3_u04_r4_network.content_distribution 	client-13 	26
scalar tree_4_3_u04_r4_network.content_distribution 	client-14 	27
scalar tree_4_3_u04_r4_network.content_distribution 	client-15 	28
scalar tree_4_3_u04_r4_network.content_distribution 	client-16 	29
scalar tree_4_3_u04_r4_network.content_distribution 	client-17 	30
scalar tree_4_3_u04_r4_network.content_distribution 	client-18 	31
scalar tree_4_3_u04_r4_network.content_distribution 	client-19 	32
scalar tree_4_3_u04_r4_network.content_distribution 	client-20 	33
scalar tree_4_3_u04_r4_network.content_distribution 	client-21 	34
scalar tree_4_3_u04_r4_network.content_distribution 	client-22 	35
scalar tree_4_3_u04_r4_network.content_distribution 	client-23 	36
scalar tree_4_3_u04_r4_network.content_distribution 	client-24 	37
scalar tree_4_3_u04_r4_network.content_distribution 	client-25 	38
scalar tree_4_3_u04_r4_network.content_distribution 	client-26 	39
scalar tree_4_3_u04_r4_network.content_distribution 	repo-0_card 	100000
scalar tree_4_3_u04_r4_network.content_distribution 	repo-0_price 	0
scalar tree_4_3_u04_r4_network.statistics 	stabilization_time 	341.1
scalar tree_4_3_u04_r4_network.statistics 	p_hit 	0.19132260372269
scalar tree_4_3_u04_r4_network.statistics 	interests 	28002.2
scalar tree_4_3_u04_r4_network.statistics 	data 	19906.3
scalar tree_4_3_u04_r4_network.statistics 	hdistance 	3.1258898116992
scalar tree_4_3_u04_r4_network.statistics 	avg_time 	0.004917306568
scalar tree_4_3_u04_r4_network.statistics 	downloads 	323823
scalar tree_4_3_u04_r4_network.statistics 	total_cost 	0
scalar tree_4_3_u04_r4_network.statistics 	total_replicas 	100000
scalar tree_4_3_u04_r4_network.statistics 	inner_hit 	0.3327712979004
scalar tree_4_3_u04_r4_network.node[0].core_layer 	interests[0] 	216064
scalar tree_4_3_u04_r4_network.node[0].core_layer 	repo_load[0] 	216064
scalar tree_4_3_u04_r4_network.node[0].core_layer 	data[0] 	0
scalar tree_4_3_u04_r4_network.node[0].core_layer 	repo_int[0] 	216064
scalar tree_4_3_u04_r4_network.node[0].content_store 	p_hit[0] 	0
scalar tree_4_3_u04_r4_network.node[0].content_store 	hits[0] 	0
scalar tree_4_3_u04_r4_network.node[0].content_store 	misses[0] 	216064
scalar tree_4_3_u04_r4_network.node[0].content_store 	decision_yes[0] 	0
scalar tree_4_3_u04_r4_network.node[0].content_store 	decision_no[0] 	216064
scalar tree_4_3_u04_r4_network.node[0].content_store 	decision_ratio[0] 	0
scalar tree_4_3_u04_r4_network.node[1].core_layer 	interests[1] 	79661
scalar tree_4_3_u04_r4_network.node[1].core_layer 	data[1] 	79658
scalar tree_4_3_u04_r4_network.node[1].content_store 	p_hit[1] 	0
scalar tree_4_3_u04_r4_network.node[1].content_store 	hits[1] 	0
scalar tree_4_3_u04_r4_network.node[1].content_store 	misses[1] 	79661
scalar tree_4_3_u04_r4_network.node[1].content_store 	decision_yes[1] 	0
scalar tree_4_3_u04_r4_network.node[1].content_store 	decision_no[1] 	79653
scalar tree_4_3_u04_r4_network.node[1].content_store 	decision_ratio[1] 	0
scalar tree_4_3_u04_r4_network.node[2].core_layer 	interests[2] 	75821
scalar tree_4_3_u04_r4_network.node[2].core_layer 	data[2] 	75817
scalar tree_4_3_u04_r4_network.node[2].content_store 	p_hit[2] 	0
scalar tree_4_3_u04_r4_network.node[2].content_store 	hits[2] 	0
scalar tree_4_3_u04_r4_network.node[2].content_store 	misses[2] 	75821
scalar tree_4_3_u04_r4_network.node[2].content_store 	decision_yes[2] 	0
scalar tree_4_3_u04_r4_network.node[2].content_store 	decision_no[2] 	75813
scalar tree_4_3_u04_r4_network.node[2].content_store 	decision_ratio[2] 	0
scalar tree_4_3_u04_r4_network.node[3].core_layer 	interests[3] 	80161
scalar tree_4_3_u04_r4_network.node[3].core_layer 	data[3] 	80155
scalar tree_4_3_u04_r4_network.node[3].content_store 	p_hit[3] 	0
scalar tree_4_3_u04_r4_network.node[3].content_store 	hits[3] 	0
scalar tree_4_3_u04_r4_network.node[3].content_store 	misses[3] 	80161
scalar tree_4_3_u04_r4_network.node[3].content_store 	decision_yes[3] 	0
scalar tree_4_3_u04_r4_network.node[3].content_store 	decision_no[3] 	80150
scalar tree_4_3_u04_r4_network.node[3].content_store 	decision_ratio[3] 	0
scalar tree_4_3_u04_r4_network.node[4].core_layer 	interests[4] 	30836
scalar tree_4_3_u04_r4_network.node[4].core_layer 	data[4] 	30836
scalar tree_4_3_u04_r4_network.node[4].content_store 	p_hit[4] 	0
scalar tree_4_3_u04_r4_network.node[4].content_store 	hits[4] 	0
scalar tree_4_3_u04_r4_network.node[4].content_store 	misses[4] 	30836
scalar tree_4_3_u04_r4_network.node[4].content_store 	decision_yes[4] 	0
scalar tree_4_3_u04_r4_network.node[4].content_store 	decision_no[4] 	30834
scalar tree_4_3_u04_r4_network.node[4].content_store 	decision_ratio[4] 	0
scalar tree_4_3_u04_r4_network.node[5].core_layer 	interests[5] 	30856
scalar tree_4_3_u04_r4_network.node[5].core_layer 	data[5] 	30856
scalar tree_4_3_u04_r4_network.node[5].content_store 	p_hit[5] 	0
scalar tree_4_3_u04_r4_network.node[5].content_store 	hits[5] 	0
scalar tree_4_3_u04_r4_network.node[5].content_store 	misses[5] 	30856
scalar tree_4_3_u04_r4_network.node[5].content_store 	decision_yes[5] 	0
scalar tree_4_3_u04_r4_network.node[5].content_store 	decision_no[5] 	30853
scalar tree_4_3_u04_r4_network.node[5].content_store 	decision_ratio[5] 	0
scalar tree_4_3_u04_r4_network.node[6].core_layer 	interests[6] 	34133
scalar tree_4_3_u04_r4_network.node[6].core_layer 	data[6] 	34130
scalar tree_4_3_u04_r4_network.node[6].content_store 	p_hit[6] 	0
scalar tree_4_3_u04_r4_network.node[6].content_store 	hits[6] 	0
scalar tree_4_3_u04_r4_network.node[6].content_store 	misses[6] 	34133
scalar tree_4_3_u04_r4_network.node[6].content_store 	decision_yes[6] 	0
scalar tree_4_3_u04_r4_network.node[6].content_store 	decision_no[6] 	34128
scalar tree_4_3_u04_r4_network.node[6].content_store 	decision_ratio[6] 	0
scalar tree_4_3_u04_r4_network.node[7].core_layer 	interests[7] 	48803
scalar tree_4_3_u04_r4_network.node[7].core_layer 	data[7] 	48802
scalar tree_4_3_u04_r4_network.node[7].content_store 	p_hit[7] 	0
scalar tree_4_3_u04_r4_network.node[7].content_store 	hits[7] 	0
scalar tree_4_3_u04_r4_network.node[7].content_store 	misses[7] 	48803
scalar tree_4_3_u04_r4_network.node[7].content_store 	decision_yes[7] 	0
scalar tree_4_3_u04_r4_network.node[7].content_store 	decision_no[7] 	48799
scalar tree_4_3_u04_r4_network.node[7].content_store 	decision_ratio[7] 	0
scalar tree_4_3_u04_r4_network.node[8].core_layer 	interests[8] 	21917
scalar tree_4_3_u04_r4_network.node[8].core_layer 	data[8] 	21913
scalar tree_4_3_u04_r4_network.node[8].content_store 	p_hit[8] 	0
scalar tree_4_3_u04_r4_network.node[8].content_store 	hits[8] 	0
scalar tree_4_3_u04_r4_network.node[8].content_store 	misses[8] 	21917
scalar tree_4_3_u04_r4_network.node[8].content_store 	decision_yes[8] 	0
scalar tree_4_3_u04_r4_network.node[8].content_store 	decision_no[8] 	21910
scalar tree_4_3_u04_r4_network.node[8].content_store 	decision_ratio[8] 	0
scalar tree_4_3_u04_r4_network.node[9].core_layer 	interests[9] 	27878
scalar tree_4_3_u04_r4_network.node[9].core_layer 	data[9] 	27874
scalar tree_4_3_u04_r4_network.node[9].content_store 	p_hit[9] 	0
scalar tree_4_3_u04_r4_network.node[9].content_store 	hits[9] 	0
scalar tree_4_3_u04_r4_network.node[9].content_store 	misses[9] 	27878
scalar tree_4_3_u04_r4_network.node[9].content_store 	decision_yes[9] 	0
scalar tree_4_3_u04_r4_network.node[9].content_store 	decision_no[9] 	27872
scalar tree_4_3_u04_r4_network.node[9].content_store 	decision_ratio[9] 	0
scalar tree_4_3_u04_r4_network.node[10].core_layer 	interests[10] 	51529
scalar tree_4_3_u04_r4_network.node[10].core_layer 	data[10] 	51525
scalar tree_4_3_u04_r4_network.node[10].content_store 	p_hit[10] 	0
scalar tree_4_3_u04_r4_network.node[10].content_store 	hits[10] 	0
scalar tree_4_3_u04_r4_network.node[10].content_store 	misses[10] 	51529
scalar tree_4_3_u04_r4_network.node[10].content_store 	decision_yes[10] 	0
scalar tree_4_3_u04_r4_network.node[10].content_store 	decision_no[10] 	51523
scalar tree_4_3_u04_r4_network.node[10].content_store 	decision_ratio[10] 	0
scalar tree_4_3_u04_r4_network.node[11].core_layer 	interests[11] 	31354
scalar tree_4_3_u04_r4_network.node[11].core_layer 	data[11] 	31353
scalar tree_4_3_u04_r4_network.node[11].content_store 	p_hit[11] 	0
scalar tree_4_3_u04_r4_network.node[11].content_store 	hits[11] 	0
scalar tree_4_3_u04_r4_network.node[11].content_store 	misses[11] 	31354
scalar tree_4_3_u04_r4_network.node[11].content_store 	decision_yes[11] 	0
scalar tree_4_3_u04_r4_network.node[11].content_store 	decision_no[11] 	31349
scalar tree_4_3_u04_r4_network.node[11].content_store 	decision_ratio[11] 	0
scalar tree_4_3_u04_r4_network.node[12].core_layer 	interests[12] 	12796
scalar tree_4_3_u04_r4_network.node[12].core_layer 	data[12] 	12795
scalar tree_4_3_u04_r4_network.node[12].content_store 	p_hit[12] 	0
scalar tree_4_3_u04_r4_network.node[12].content_store 	hits[12] 	0
scalar tree_4_3_u04_r4_network.node[12].content_store 	misses[12] 	12796
scalar tree_4_3_u04_r4_network.node[12].content_store 	decision_yes[12] 	0
scalar tree_4_3_u04_r4_network.node[12].content_store 	decision_no[12] 	12794
scalar tree_4_3_u04_r4_network.node[12].content_store 	decision_ratio[12] 	0
scalar tree_4_3_u04_r4_network.node[13].core_layer 	interests[13] 	13378
scalar tree_4_3_u04_r4_network.node[13].core_layer 	data[13] 	10050
scalar tree_4_3_u04_r4_network.node[13].content_store 	p_hit[13] 	0.24861713260577
scalar tree_4_3_u04_r4_network.node[13].content_store 	hits[13] 	3326
scalar tree_4_3_u04_r4_network.node[13].content_store 	misses[13] 	10052
scalar tree_4_3_u04_r4_network.node[13].content_store 	decision_yes[13] 	10050
scalar tree_4_3_u04_r4_network.node[13].content_store 	decision_no[13] 	0
scalar tree_4_3_u04_r4_network.node[13].content_store 	decision_ratio[13] 	1
scalar tree_4_3_u04_r4_network.node[14].core_layer 	interests[14] 	13502
scalar tree_4_3_u04_r4_network.node[14].core_layer 	data[14] 	10132
scalar tree_4_3_u04_r4_network.node[14].content_store 	p_hit[14] 	0.24959265294031
scalar tree_4_3_u04_r4_network.node[14].content_store 	hits[14] 	3370
scalar tree_4_3_u04_r4_network.node[14].content_store 	misses[14] 	10132
scalar tree_4_3_u04_r4_network.node[14].content_store 	decision_yes[14] 	10132
scalar tree_4_3_u04_r4_network.node[14].content_store 	decision_no[14] 	0
scalar tree_4_3_u04_r4_network.node[14].content_store 	decision_ratio[14] 	1
scalar tree_4_3_u04_r4_network.node[15].core_layer 	interests[15] 	14498
scalar tree_4_3_u04_r4_network.node[15].core_layer 	data[15] 	9823
scalar tree_4_3_u04_r4_network.node[15].content_store 	p_hit[15] 	0.32245827010622
scalar tree_4_3_u04_r4_network.node[15].content_store 	hits[15] 	4675
scalar tree_4_3_u04_r4_network.node[15].content_store 	misses[15] 	9823
scalar tree_4_3_u04_r4_network.node[15].content_store 	decision_yes[15] 	9823
scalar tree_4_3_u04_r4_network.node[15].content_store 	decision_no[15] 	0
scalar tree_4_3_u04_r4_network.node[15].content_store 	decision_ratio[15] 	1
scalar tree_4_3_u04_r4_network.node[16].core_layer 	interests[16] 	13462
scalar tree_4_3_u04_r4_network.node[16].core_layer 	data[16] 	10047
scalar tree_4_3_u04_r4_network.node[16].content_store 	p_hit[16] 	0.25352845045313
scalar tree_4_3_u04_r4_network.node[16].content_store 	hits[16] 	3413
scalar tree_4_3_u04_r4_network.node[16].content_store 	misses[16] 	10049
scalar tree_4_3_u04_r4_network.node[16].content_store 	decision_yes[16] 	10047
scalar tree_4_3_u04_r4_network.node[16].content_store 	decision_no[16] 	0
scalar tree_4_3_u04_r4_network.node[16].content_store 	decision_ratio[16] 	1
scalar tree_4_3_u04_r4_network.node[17].core_layer 	interests[17] 	13390
scalar tree_4_3_u04_r4_network.node[17].core_layer 	data[17] 	10137
scalar tree_4_3_u04_r4_network.node[17].content_store 	p_hit[17] 	0.24286781179985
scalar tree_4_3_u04_r4_network.node[17].content_store 	hits[17] 	3252
scalar tree_4_3_u04_r4_network.node[17].content_store 	misses[17] 	10138
scalar tree_4_3_u04_r4_network.node[17].content_store 	decision_yes[17] 	10137
scalar tree_4_3_u04_r4_network.node[17].content_store 	decision_no[17] 	0
scalar tree_4_3_u04_r4_network.node[17].content_store 	decision_ratio[17] 	1
scalar tree_4_3_u04_r4_network.node[18].core_layer 	interests[18] 	14588
scalar tree_4_3_u04_r4_network.node[18].core_layer 	data[18] 	9985
scalar tree_4_3_u04_r4_network.node[18].content_store 	p_hit[18] 	0.31553331505347
scalar tree_4_3_u04_r4_network.node[18].content_store 	hits[18] 	4603
scalar tree_4_3_u04_r4_network.node[18].content_store 	misses[18] 	9985
scalar tree_4_3_u04_r4_network.node[18].content_store 	decision_yes[18] 	9985
scalar tree_4_3_u04_r4_network.node[18].content_store 	decision_no[18] 	0
scalar tree_4_3_u04_r4_network.node[18].content_store 	decision_ratio[18] 	1
scalar tree_4_3_u04_r4_network.node[19].core_layer 	interests[19] 	13911
scalar tree_4_3_u04_r4_network.node[19].core_layer 	data[19] 	10145
scalar tree_4_3_u04_r4_network.node[19].content_store 	p_hit[19] 	0.27072101214866
scalar tree_4_3_u04_r4_network.node[19].content_store 	hits[19] 	3766
scalar tree_4_3_u04_r4_network.node[19].content_store 	misses[19] 	10145
scalar tree_4_3_u04_r4_network.node[19].content_store 	decision_yes[19] 	10145
scalar tree_4_3_u04_r4_network.node[19].content_store 	decision_no[19] 	0
scalar tree_4_3_u04_r4_network.node[19].content_store 	decision_ratio[19] 	1
scalar tree_4_3_u04_r4_network.node[20].core_layer 	interests[20] 	13823
scalar tree_4_3_u04_r4_network.node[20].core_layer 	data[20] 	10171
scalar tree_4_3_u04_r4_network.node[20].content_store 	p_hit[20] 	0.26419735223902
scalar tree_4_3_u04_r4_network.node[20].content_store 	hits[20] 	3652
scalar tree_4_3_u04_r4_network.node[20].content_store 	misses[20] 	10171
scalar tree_4_3_u04_r4_network.node[20].content_store 	decision_yes[20] 	10171
scalar tree_4_3_u04_r4_network.node[20].content_store 	decision_no[20] 	0
scalar tree_4_3_u04_r4_network.node[20].content_store 	decision_ratio[20] 	1
scalar tree_4_3_u04_r4_network.node[21].core_layer 	interests[21] 	13722
scalar tree_4_3_u04_r4_network.node[21].core_layer 	data[21] 	9881
scalar tree_4_3_u04_r4_network.node[21].content_store 	p_hit[21] 	0.27984258854394
scalar tree_4_3_u04_r4_network.node[21].content_store 	hits[21] 	3840
scalar tree_4_3_u04_r4_network.node[21].content_store 	misses[21] 	9882
scalar tree_4_3_u04_r4_network.node[21].content_store 	decision_yes[21] 	9881
scalar tree_4_3_u04_r4_network.node[21].content_store 	decision_no[21] 	0
scalar tree_4_3_u04_r4_network.node[21].content_store 	decision_ratio[21] 	1
scalar tree_4_3_u04_r4_network.node[22].core_layer 	interests[22] 	13830
scalar tree_4_3_u04_r4_network.node[22].core_layer 	data[22] 	10225
scalar tree_4_3_u04_r4_network.node[22].content_store 	p_hit[22] 	0.26059291395517
scalar tree_4_3_u04_r4_network.node[22].content_store 	hits[22] 	3604
scalar tree_4_3_u04_r4_network.node[22].content_store 	misses[22] 	10226
scalar tree_4_3_u04_r4_network.node[22].content_store 	decision_yes[22] 	10225
scalar tree_4_3_u04_r4_network.node[22].content_store 	decision_no[22] 	0
scalar tree_4_3_u04_r4_network.node[22].content_store 	decision_ratio[22] 	1
scalar tree_4_3_u04_r4_network.node[23].core_layer 	interests[23] 	13478
scalar tree_4_3_u04_r4_network.node[23].core_layer 	data[23] 	9910
scalar tree_4_3_u04_r4_network.node[23].content_store 	p_hit[23] 	0.26472770440718
scalar tree_4_3_u04_r4_network.node[23].content_store 	hits[23] 	3568
scalar tree_4_3_u04_r4_network.node[23].content_store 	misses[23] 	9910
scalar tree_4_3_u04_r4_network.node[23].content_store 	decision_yes[23] 	9910
scalar tree_4_3_u04_r4_network.node[23].content_store 	decision_no[23] 	0
scalar tree_4_3_u04_r4_network.node[23].content_store 	decision_ratio[23] 	1
scalar tree_4_3_u04_r4_network.node[24].core_layer 	interests[24] 	15452
scalar tree_4_3_u04_r4_network.node[24].core_layer 	data[24] 	9819
scalar tree_4_3_u04_r4_network.node[24].content_store 	p_hit[24] 	0.36454827853999
scalar tree_4_3_u04_r4_network.node[24].content_store 	hits[24] 	5633
scalar tree_4_3_u04_r4_network.node[24].content_store 	misses[24] 	9819
scalar tree_4_3_u04_r4_network.node[24].content_store 	decision_yes[24] 	9819
scalar tree_4_3_u04_r4_network.node[24].content_store 	decision_no[24] 	0
scalar tree_4_3_u04_r4_network.node[24].content_store 	decision_ratio[24] 	1
scalar tree_4_3_u04_r4_network.node[25].core_layer 	interests[25] 	14192
scalar tree_4_3_u04_r4_network.node[25].core_layer 	data[25] 	9997
scalar tree_4_3_u04_r4_network.node[25].content_store 	p_hit[25] 	0.29551860202931
scalar tree_4_3_u04_r4_network.node[25].content_store 	hits[25] 	4194
scalar tree_4_3_u04_r4_network.node[25].content_store 	misses[25] 	9998
scalar tree_4_3_u04_r4_network.node[25].content_store 	decision_yes[25] 	9997
scalar tree_4_3_u04_r4_network.node[25].content_store 	decision_no[25] 	0
scalar tree_4_3_u04_r4_network.node[25].content_store 	decision_ratio[25] 	1
scalar tree_4_3_u04_r4_network.node[26].core_layer 	interests[26] 	13181
scalar tree_4_3_u04_r4_network.node[26].core_layer 	data[26] 	10095
scalar tree_4_3_u04_r4_network.node[26].content_store 	p_hit[26] 	0.23412487671649
scalar tree_4_3_u04_r4_network.node[26].content_store 	hits[26] 	3086
scalar tree_4_3_u04_r4_network.node[26].content_store 	misses[26] 	10095
scalar tree_4_3_u04_r4_network.node[26].content_store 	decision_yes[26] 	10095
scalar tree_4_3_u04_r4_network.node[26].content_store 	decision_no[26] 	0
scalar tree_4_3_u04_r4_network.node[26].content_store 	decision_ratio[26] 	1
scalar tree_4_3_u04_r4_network.node[27].core_layer 	interests[27] 	13455
scalar tree_4_3_u04_r4_network.node[27].core_layer 	data[27] 	10208
scalar tree_4_3_u04_r4_network.node[27].content_store 	p_hit[27] 	0.24132292827945
scalar tree_4_3_u04_r4_network.node[27].content_store 	hits[27] 	3247
scalar tree_4_3_u04_r4_network.node[27].content_store 	misses[27] 	10208
scalar tree_4_3_u04_r4_network.node[27].content_store 	decision_yes[27] 	10208
scalar tree_4_3_u04_r4_network.node[27].content_store 	decision_no[27] 	0
scalar tree_4_3_u04_r4_network.node[27].content_store 	decision_ratio[27] 	1
scalar tree_4_3_u04_r4_network.node[28].core_layer 	interests[28] 	15163
scalar tree_4_3_u04_r4_network.node[28].core_layer 	data[28] 	9971
scalar tree_4_3_u04_r4_network.node[28].content_store 	p_hit[28] 	0.34241245136187
scalar tree_4_3_u04_r4_network.node[28].content_store 	hits[28] 	5192
scalar tree_4_3_u04_r4_network.node[28].content_store 	misses[28] 	9971
scalar tree_4_3_u04_r4_network.node[28].content_store 	decision_yes[28] 	9971
scalar tree_4_3_u04_r4_network.node[28].content_store 	decision_no[28] 	0
scalar tree_4_3_u04_r4_network.node[28].content_store 	decision_ratio[28] 	1
scalar tree_4_3_u04_r4_network.node[29].core_layer 	interests[29] 	14474
scalar tree_4_3_u04_r4_network.node[29].core_layer 	data[29] 	9928
scalar tree_4_3_u04_r4_network.node[29].content_store 	p_hit[29] 	0.31408042006356
scalar tree_4_3_u04_r4_network.node[29].content_store 	hits[29] 	4546
scalar tree_4_3_u04_r4_network.node[29].content_store 	misses[29] 	9928
scalar tree_4_3_u04_r4_network.node[29].content_store 	decision_yes[29] 	9928
scalar tree_4_3_u04_r4_network.node[29].content_store 	decision_no[29] 	0
scalar tree_4_3_u04_r4_network.node[29].content_store 	decision_ratio[29] 	1
scalar tree_4_3_u04_r4_network.node[30].core_layer 	interests[30] 	14655
scalar tree_4_3_u04_r4_network.node[30].core_layer 	data[30] 	10281
scalar tree_4_3_u04_r4_network.node[30].content_store 	p_hit[30] 	0.29839645172296
scalar tree_4_3_u04_r4_network.node[30].content_store 	hits[30] 	4373
scalar tree_4_3_u04_r4_network.node[30].content_store 	misses[30] 	10282
scalar tree_4_3_u04_r4_network.node[30].content_store 	decision_yes[30] 	10281
scalar tree_4_3_u04_r4_network.node[30].content_store 	decision_no[30] 	0
scalar tree_4_3_u04_r4_network.node[30].content_store 	decision_ratio[30] 	1
scalar tree_4_3_u04_r4_network.node[31].core_layer 	interests[31] 	13928
scalar tree_4_3_u04_r4_network.node[31].core_layer 	data[31] 	10106
scalar tree_4_3_u04_r4_network.node[31].content_store 	p_hit[31] 	0.27433946008041
scalar tree_4_3_u04_r4_network.node[31].content_store 	hits[31] 	3821
scalar tree_4_3_u04_r4_network.node[31].content_store 	misses[31] 	10107
scalar tree_4_3_u04_r4_network.node[31].content_store 	decision_yes[31] 	10106
scalar tree_4_3_u04_r4_network.node[31].content_store 	decision_no[31] 	0
scalar tree_4_3_u04_r4_network.node[31].content_store 	decision_ratio[31] 	1
scalar tree_4_3_u04_r4_network.node[32].core_layer 	interests[32] 	13875
scalar tree_4_3_u04_r4_network.node[32].core_layer 	data[32] 	10083
scalar tree_4_3_u04_r4_network.node[32].content_store 	p_hit[32] 	0.27315315315315
scalar tree_4_3_u04_r4_network.node[32].content_store 	hits[32] 	3790
scalar tree_4_3_u04_r4_network.node[32].content_store 	misses[32] 	10085
scalar tree_4_3_u04_r4_network.node[32].content_store 	decision_yes[32] 	10083
scalar tree_4_3_u04_r4_network.node[32].content_store 	decision_no[32] 	0
scalar tree_4_3_u04_r4_network.node[32].content_store 	decision_ratio[32] 	1
scalar tree_4_3_u04_r4_network.node[33].core_layer 	interests[33] 	13663
scalar tree_4_3_u04_r4_network.node[33].core_layer 	data[33] 	9922
scalar tree_4_3_u04_r4_network.node[33].content_store 	p_hit[33] 	0.27373197687184
scalar tree_4_3_u04_r4_network.node[33].content_store 	hits[33] 	3740
scalar tree_4_3_u04_r4_network.node[33].content_store 	misses[33] 	9923
scalar tree_4_3_u04_r4_network.node[33].content_store 	decision_yes[33] 	9922
scalar tree_4_3_u04_r4_network.node[33].content_store 	decision_no[33] 	0
scalar tree_4_3_u04_r4_network.node[33].content_store 	decision_ratio[33] 	1
scalar tree_4_3_u04_r4_network.node[34].core_layer 	interests[34] 	14859
scalar tree_4_3_u04_r4_network.node[34].core_layer 	data[34] 	10007
scalar tree_4_3_u04_r4_network.node[34].content_store 	p_hit[34] 	0.32646880678377
scalar tree_4_3_u04_r4_network.node[34].content_store 	hits[34] 	4851
scalar tree_4_3_u04_r4_network.node[34].content_store 	misses[34] 	10008
scalar tree_4_3_u04_r4_network.node[34].content_store 	decision_yes[34] 	10007
scalar tree_4_3_u04_r4_network.node[34].content_store 	decision_no[34] 	0
scalar tree_4_3_u04_r4_network.node[34].content_store 	decision_ratio[34] 	1
scalar tree_4_3_u04_r4_network.node[35].core_layer 	interests[35] 	13490
scalar tree_4_3_u04_r4_network.node[35].core_layer 	data[35] 	9928
scalar tree_4_3_u04_r4_network.node[35].content_store 	p_hit[35] 	0.26412157153447
scalar tree_4_3_u04_r4_network.node[35].content_store 	hits[35] 	3563
scalar tree_4_3_u04_r4_network.node[35].content_store 	misses[35] 	9927
scalar tree_4_3_u04_r4_network.node[35].content_store 	decision_yes[35] 	9928
scalar tree_4_3_u04_r4_network.node[35].content_store 	decision_no[35] 	0
scalar tree_4_3_u04_r4_network.node[35].content_store 	decision_ratio[35] 	1
scalar tree_4_3_u04_r4_network.node[36].core_layer 	interests[36] 	14055
scalar tree_4_3_u04_r4_network.node[36].core_layer 	data[36] 	10046
scalar tree_4_3_u04_r4_network.node[36].content_store 	p_hit[36] 	0.28523657061544
scalar tree_4_3_u04_r4_network.node[36].content_store 	hits[36] 	4009
scalar tree_4_3_u04_r4_network.node[36].content_store 	misses[36] 	10046
scalar tree_4_3_u04_r4_network.node[36].content_store 	decision_yes[36] 	10046
scalar tree_4_3_u04_r4_network.node[36].content_store 	decision_no[36] 	0
scalar tree_4_3_u04_r4_network.node[36].content_store 	decision_ratio[36] 	1
scalar tree_4_3_u04_r4_network.node[37].core_layer 	interests[37] 	14591
scalar tree_4_3_u04_r4_network.node[37].core_layer 	data[37] 	9728
scalar tree_4_3_u04_r4_network.node[37].content_store 	p_hit[37] 	0.33321910766911
scalar tree_4_3_u04_r4_network.node[37].content_store 	hits[37] 	4862
scalar tree_4_3_u04_r4_network.node[37].content_store 	misses[37] 	9729
scalar tree_4_3_u04_r4_network.node[37].content_store 	decision_yes[37] 	9728
scalar tree_4_3_u04_r4_network.node[37].content_store 	decision_no[37] 	0
scalar tree_4_3_u04_r4_network.node[37].content_store 	decision_ratio[37] 	1
scalar tree_4_3_u04_r4_network.node[38].core_layer 	interests[38] 	14054
scalar tree_4_3_u04_r4_network.node[38].core_layer 	data[38] 	9796
scalar tree_4_3_u04_r4_network.node[38].content_store 	p_hit[38] 	0.30297424220862
scalar tree_4_3_u04_r4_network.node[38].content_store 	hits[38] 	4258
scalar tree_4_3_u04_r4_network.node[38].content_store 	misses[38] 	9796
scalar tree_4_3_u04_r4_network.node[38].content_store 	decision_yes[38] 	9796
scalar tree_4_3_u04_r4_network.node[38].content_store 	decision_no[38] 	0
scalar tree_4_3_u04_r4_network.node[38].content_store 	decision_ratio[38] 	1
scalar tree_4_3_u04_r4_network.node[39].core_layer 	interests[39] 	13610
scalar tree_4_3_u04_r4_network.node[39].core_layer 	data[39] 	10117
scalar tree_4_3_u04_r4_network.node[39].content_store 	p_hit[39] 	0.25657604702425
scalar tree_4_3_u04_r4_network.node[39].content_store 	hits[39] 	3492
scalar tree_4_3_u04_r4_network.node[39].content_store 	misses[39] 	10118
scalar tree_4_3_u04_r4_network.node[39].content_store 	decision_yes[39] 	10117
scalar tree_4_3_u04_r4_network.node[39].content_store 	decision_no[39] 	0
scalar tree_4_3_u04_r4_network.node[39].content_store 	decision_ratio[39] 	1
scalar tree_4_3_u04_r4_network.client[13] 	hdistance[13] 	3.215242881072
scalar tree_4_3_u04_r4_network.client[13] 	downloads[13] 	11940
scalar tree_4_3_u04_r4_network.client[13] 	avg_time[13] 	0.005047570603
scalar tree_4_3_u04_r4_network.client[14] 	hdistance[14] 	3.2047733488025
scalar tree_4_3_u04_r4_network.client[14] 	downloads[14] 	12067
scalar tree_4_3_u04_r4_network.client[14] 	avg_time[14] 	0.005034197703
scalar tree_4_3_u04_r4_network.client[15] 	hdistance[15] 	3.0632591093117
scalar tree_4_3_u04_r4_network.client[15] 	downloads[15] 	11856
scalar tree_4_3_u04_r4_network.client[15] 	avg_time[15] 	0.00475291664
scalar tree_4_3_u04_r4_network.client[16] 	hdistance[16] 	3.1964701964702
scalar tree_4_3_u04_r4_network.client[16] 	downloads[16] 	12012
scalar tree_4_3_u04_r4_network.client[16] 	avg_time[16] 	0.005023536049
scalar tree_4_3_u04_r4_network.client[17] 	hdistance[17] 	3.2128700555602
scalar tree_4_3_u04_r4_network.client[17] 	downloads[17] 	12059
scalar tree_4_3_u04_r4_network.client[17] 	avg_time[17] 	0.005044476286
scalar tree_4_3_u04_r4_network.client[18] 	hdistance[18] 	3.0591366547451
scalar tree_4_3_u04_r4_network.client[18] 	downloads[18] 	12023
scalar tree_4_3_u04_r4_network.client[18] 	avg_time[18] 	0.004750225725
scalar tree_4_3_u04_r4_network.client[19] 	hdistance[19] 	3.1157201646091
scalar tree_4_3_u04_r4_network.client[19] 	downloads[19] 	12150
scalar tree_4_3_u04_r4_network.client[19] 	avg_time[19] 	0.004864587885
scalar tree_4_3_u04_r4_network.client[20] 	hdistance[20] 	3.1346217376941
scalar tree_4_3_u04_r4_network.client[20] 	downloads[20] 	12108
scalar tree_4_3_u04_r4_network.client[20] 	avg_time[20] 	0.004892795113
scalar tree_4_3_u04_r4_network.client[21] 	hdistance[21] 	3.1057854019509
scalar tree_4_3_u04_r4_network.client[21] 	downloads[21] 	11892
scalar tree_4_3_u04_r4_network.client[21] 	avg_time[21] 	0.004849541004
scalar tree_4_3_u04_r4_network.client[22] 	hdistance[22] 	3.1047789627941
scalar tree_4_3_u04_r4_network.client[22] 	downloads[22] 	12283
scalar tree_4_3_u04_r4_network.client[22] 	avg_time[22] 	0.00484824409
scalar tree_4_3_u04_r4_network.client[23] 	hdistance[23] 	3.0989010989011
scalar tree_4_3_u04_r4_network.client[23] 	downloads[23] 	11921
scalar tree_4_3_u04_r4_network.client[23] 	avg_time[23] 	0.004839523904
scalar tree_4_3_u04_r4_network.client[24] 	hdistance[24] 	3.0463297738165
scalar tree_4_3_u04_r4_network.client[24] 	downloads[24] 	11893
scalar tree_4_3_u04_r4_network.client[24] 	avg_time[24] 	0.004837441813
scalar tree_4_3_u04_r4_network.client[25] 	hdistance[25] 	3.0904215201542
scalar tree_4_3_u04_r4_network.client[25] 	downloads[25] 	11933
scalar tree_4_3_u04_r4_network.client[25] 	avg_time[25] 	0.004803780674
scalar tree_4_3_u04_r4_network.client[26] 	hdistance[26] 	3.2204435551109
scalar tree_4_3_u04_r4_network.client[26] 	downloads[26] 	11994
scalar tree_4_3_u04_r4_network.client[26] 	avg_time[26] 	0.005061814828
scalar tree_4_3_u04_r4_network.client[27] 	hdistance[27] 	3.1997378338522
scalar tree_4_3_u04_r4_network.client[27] 	downloads[27] 	12206
scalar tree_4_3_u04_r4_network.client[27] 	avg_time[27] 	0.005034071605
scalar tree_4_3_u04_r4_network.client[28] 	hdistance[28] 	3.0987602260268
scalar tree_4_3_u04_r4_network.client[28] 	downloads[28] 	11857
scalar tree_4_3_u04_r4_network.client[28] 	avg_time[28] 	0.004924695863
scalar tree_4_3_u04_r4_network.client[29] 	hdistance[29] 	3.1240043598558
scalar tree_4_3_u04_r4_network.client[29] 	downloads[29] 	11927
scalar tree_4_3_u04_r4_network.client[29] 	avg_time[29] 	0.004999697035
scalar tree_4_3_u04_r4_network.client[30] 	hdistance[30] 	3.1881073958162
scalar tree_4_3_u04_r4_network.client[30] 	downloads[30] 	12142
scalar tree_4_3_u04_r4_network.client[30] 	avg_time[30] 	0.005096300105
scalar tree_4_3_u04_r4_network.client[31] 	hdistance[31] 	3.1318626637917
scalar tree_4_3_u04_r4_network.client[31] 	downloads[31] 	12058
scalar tree_4_3_u04_r4_network.client[31] 	avg_time[31] 	0.004949122027
scalar tree_4_3_u04_r4_network.client[32] 	hdistance[32] 	3.122238830759
scalar tree_4_3_u04_r4_network.client[32] 	downloads[32] 	12042
scalar tree_4_3_u04_r4_network.client[32] 	avg_time[32] 	0.004936891378
scalar tree_4_3_u04_r4_network.client[33] 	hdistance[33] 	3.1196147997973
scalar tree_4_3_u04_r4_network.client[33] 	downloads[33] 	11838
scalar tree_4_3_u04_r4_network.client[33] 	avg_time[33] 	0.004936765216
scalar tree_4_3_u04_r4_network.client[34] 	hdistance[34] 	3.0433624635872
scalar tree_4_3_u04_r4_network.client[34] 	downloads[34] 	12015
scalar tree_4_3_u04_r4_network.client[34] 	avg_time[34] 	0.004781963477
scalar tree_4_3_u04_r4_network.client[35] 	hdistance[35] 	3.1404112463282
scalar tree_4_3_u04_r4_network.client[35] 	downloads[35] 	11915
scalar tree_4_3_u04_r4_network.client[35] 	avg_time[35] 	0.004964173616
scalar tree_4_3_u04_r4_network.client[36] 	hdistance[36] 	3.090848806366
scalar tree_4_3_u04_r4_network.client[36] 	downloads[36] 	12064
scalar tree_4_3_u04_r4_network.client[36] 	avg_time[36] 	0.004867726592
scalar tree_4_3_u04_r4_network.client[37] 	hdistance[37] 	3.0268530283778
scalar tree_4_3_u04_r4_network.client[37] 	downloads[37] 	11805
scalar tree_4_3_u04_r4_network.client[37] 	avg_time[37] 	0.004749517804
scalar tree_4_3_u04_r4_network.client[38] 	hdistance[38] 	3.0718998477415
scalar tree_4_3_u04_r4_network.client[38] 	downloads[38] 	11822
scalar tree_4_3_u04_r4_network.client[38] 	avg_time[38] 	0.004840317705
scalar tree_4_3_u04_r4_network.client[39] 	hdistance[39] 	3.1725689525873
scalar tree_4_3_u04_r4_network.client[39] 	downloads[39] 	12001
scalar tree_4_3_u04_r4_network.client[39] 	avg_time[39] 	0.005035382601
