version 2
run General-84-20160818-19:18:26-19481
attr a 0.9
attr cd lce
attr configname General
attr cr lru
attr datetime 20160818-19:18:26
attr experiment General
attr fsize 1
attr inifile hw5115/scenario_A/EdgeCoop.ini
attr iterationvars "$name=tree_4_3, $un=04, $rep=5, $scenario=Edge, $cd=lce, $cr=lru, $fsize=1, $a=0.9, $sl=nrr, $ttl=1000, $variance=0.05"
attr iterationvars2 "$name=tree_4_3, $un=04, $rep=5, $scenario=Edge, $cd=lce, $cr=lru, $fsize=1, $a=0.9, $sl=nrr, $ttl=1000, $variance=0.05, $repetition=0"
attr measurement "$name=tree_4_3, $un=04, $rep=5, $scenario=Edge, $cd=lce, $cr=lru, $fsize=1, $a=0.9, $sl=nrr, $ttl=1000, $variance=0.05"
attr name tree_4_3
attr network networks.${name}_u${un}_r${rep}_network
attr processid 19481
attr rep 5
attr repetition 0
attr replication #0
attr resultdir results
attr runnumber 84
attr scenario Edge
attr seedset 5
attr sl nrr
attr ttl 1000
attr un 04
attr variance 0.05

scalar . 	a 	0.9
scalar . 	fsize 	1
scalar . 	rep 	5
scalar . 	ttl 	1000
scalar . 	un 	04
scalar . 	variance 	0.05
scalar tree_4_3_u04_r5_network.content_distribution 	repo-0 	0
scalar tree_4_3_u04_r5_network.content_distribution 	client-0 	13
scalar tree_4_3_u04_r5_network.content_distribution 	client-1 	14
scalar tree_4_3_u04_r5_network.content_distribution 	client-2 	15
scalar tree_4_3_u04_r5_network.content_distribution 	client-3 	16
scalar tree_4_3_u04_r5_network.content_distribution 	client-4 	17
scalar tree_4_3_u04_r5_network.content_distribution 	client-5 	18
scalar tree_4_3_u04_r5_network.content_distribution 	client-6 	19
scalar tree_4_3_u04_r5_network.content_distribution 	client-7 	20
scalar tree_4_3_u04_r5_network.content_distribution 	client-8 	21
scalar tree_4_3_u04_r5_network.content_distribution 	client-9 	22
scalar tree_4_3_u04_r5_network.content_distribution 	client-10 	23
scalar tree_4_3_u04_r5_network.content_distribution 	client-11 	24
scalar tree_4_3_u04_r5_network.content_distribution 	client-12 	25
scalar tree_4_3_u04_r5_network.content_distribution 	client-13 	26
scalar tree_4_3_u04_r5_network.content_distribution 	client-14 	27
scalar tree_4_3_u04_r5_network.content_distribution 	client-15 	28
scalar tree_4_3_u04_r5_network.content_distribution 	client-16 	29
scalar tree_4_3_u04_r5_network.content_distribution 	client-17 	30
scalar tree_4_3_u04_r5_network.content_distribution 	client-18 	31
scalar tree_4_3_u04_r5_network.content_distribution 	client-19 	32
scalar tree_4_3_u04_r5_network.content_distribution 	client-20 	33
scalar tree_4_3_u04_r5_network.content_distribution 	client-21 	34
scalar tree_4_3_u04_r5_network.content_distribution 	client-22 	35
scalar tree_4_3_u04_r5_network.content_distribution 	client-23 	36
scalar tree_4_3_u04_r5_network.content_distribution 	client-24 	37
scalar tree_4_3_u04_r5_network.content_distribution 	client-25 	38
scalar tree_4_3_u04_r5_network.content_distribution 	client-26 	39
scalar tree_4_3_u04_r5_network.content_distribution 	repo-0_card 	100000
scalar tree_4_3_u04_r5_network.content_distribution 	repo-0_price 	0
scalar tree_4_3_u04_r5_network.statistics 	stabilization_time 	338.1
scalar tree_4_3_u04_r5_network.statistics 	p_hit 	0.20379265636008
scalar tree_4_3_u04_r5_network.statistics 	interests 	28348.05
scalar tree_4_3_u04_r5_network.statistics 	data 	20261.75
scalar tree_4_3_u04_r5_network.statistics 	hdistance 	3.1396094909617
scalar tree_4_3_u04_r5_network.statistics 	avg_time 	0.005011859872
scalar tree_4_3_u04_r5_network.statistics 	downloads 	323435
scalar tree_4_3_u04_r5_network.statistics 	total_cost 	0
scalar tree_4_3_u04_r5_network.statistics 	total_replicas 	100000
scalar tree_4_3_u04_r5_network.statistics 	inner_hit 	0.36639819438218
scalar tree_4_3_u04_r5_network.node[0].core_layer 	interests[0] 	204929
scalar tree_4_3_u04_r5_network.node[0].core_layer 	repo_load[0] 	204929
scalar tree_4_3_u04_r5_network.node[0].core_layer 	data[0] 	0
scalar tree_4_3_u04_r5_network.node[0].core_layer 	repo_int[0] 	204929
scalar tree_4_3_u04_r5_network.node[0].content_store 	p_hit[0] 	0
scalar tree_4_3_u04_r5_network.node[0].content_store 	hits[0] 	0
scalar tree_4_3_u04_r5_network.node[0].content_store 	misses[0] 	204929
scalar tree_4_3_u04_r5_network.node[0].content_store 	decision_yes[0] 	0
scalar tree_4_3_u04_r5_network.node[0].content_store 	decision_no[0] 	204929
scalar tree_4_3_u04_r5_network.node[0].content_store 	decision_ratio[0] 	0
scalar tree_4_3_u04_r5_network.node[1].core_layer 	interests[1] 	107007
scalar tree_4_3_u04_r5_network.node[1].core_layer 	data[1] 	107001
scalar tree_4_3_u04_r5_network.node[1].content_store 	p_hit[1] 	0
scalar tree_4_3_u04_r5_network.node[1].content_store 	hits[1] 	0
scalar tree_4_3_u04_r5_network.node[1].content_store 	misses[1] 	107007
scalar tree_4_3_u04_r5_network.node[1].content_store 	decision_yes[1] 	0
scalar tree_4_3_u04_r5_network.node[1].content_store 	decision_no[1] 	106997
scalar tree_4_3_u04_r5_network.node[1].content_store 	decision_ratio[1] 	0
scalar tree_4_3_u04_r5_network.node[2].core_layer 	interests[2] 	80607
scalar tree_4_3_u04_r5_network.node[2].core_layer 	data[2] 	80606
scalar tree_4_3_u04_r5_network.node[2].content_store 	p_hit[2] 	0
scalar tree_4_3_u04_r5_network.node[2].content_store 	hits[2] 	0
scalar tree_4_3_u04_r5_network.node[2].content_store 	misses[2] 	80607
scalar tree_4_3_u04_r5_network.node[2].content_store 	decision_yes[2] 	0
scalar tree_4_3_u04_r5_network.node[2].content_store 	decision_no[2] 	80605
scalar tree_4_3_u04_r5_network.node[2].content_store 	decision_ratio[2] 	0
scalar tree_4_3_u04_r5_network.node[3].core_layer 	interests[3] 	49463
scalar tree_4_3_u04_r5_network.node[3].core_layer 	data[3] 	49462
scalar tree_4_3_u04_r5_network.node[3].content_store 	p_hit[3] 	0
scalar tree_4_3_u04_r5_network.node[3].content_store 	hits[3] 	0
scalar tree_4_3_u04_r5_network.node[3].content_store 	misses[3] 	49463
scalar tree_4_3_u04_r5_network.node[3].content_store 	decision_yes[3] 	0
scalar tree_4_3_u04_r5_network.node[3].content_store 	decision_no[3] 	49459
scalar tree_4_3_u04_r5_network.node[3].content_store 	decision_ratio[3] 	0
scalar tree_4_3_u04_r5_network.node[4].core_layer 	interests[4] 	40412
scalar tree_4_3_u04_r5_network.node[4].core_layer 	data[4] 	40408
scalar tree_4_3_u04_r5_network.node[4].content_store 	p_hit[4] 	0
scalar tree_4_3_u04_r5_network.node[4].content_store 	hits[4] 	0
scalar tree_4_3_u04_r5_network.node[4].content_store 	misses[4] 	40412
scalar tree_4_3_u04_r5_network.node[4].content_store 	decision_yes[4] 	0
scalar tree_4_3_u04_r5_network.node[4].content_store 	decision_no[4] 	40407
scalar tree_4_3_u04_r5_network.node[4].content_store 	decision_ratio[4] 	0
scalar tree_4_3_u04_r5_network.node[5].core_layer 	interests[5] 	20387
scalar tree_4_3_u04_r5_network.node[5].core_layer 	data[5] 	20386
scalar tree_4_3_u04_r5_network.node[5].content_store 	p_hit[5] 	0
scalar tree_4_3_u04_r5_network.node[5].content_store 	hits[5] 	0
scalar tree_4_3_u04_r5_network.node[5].content_store 	misses[5] 	20387
scalar tree_4_3_u04_r5_network.node[5].content_store 	decision_yes[5] 	0
scalar tree_4_3_u04_r5_network.node[5].content_store 	decision_no[5] 	20384
scalar tree_4_3_u04_r5_network.node[5].content_store 	decision_ratio[5] 	0
scalar tree_4_3_u04_r5_network.node[6].core_layer 	interests[6] 	39718
scalar tree_4_3_u04_r5_network.node[6].core_layer 	data[6] 	39711
scalar tree_4_3_u04_r5_network.node[6].content_store 	p_hit[6] 	0
scalar tree_4_3_u04_r5_network.node[6].content_store 	hits[6] 	0
scalar tree_4_3_u04_r5_network.node[6].content_store 	misses[6] 	39718
scalar tree_4_3_u04_r5_network.node[6].content_store 	decision_yes[6] 	0
scalar tree_4_3_u04_r5_network.node[6].content_store 	decision_no[6] 	39707
scalar tree_4_3_u04_r5_network.node[6].content_store 	decision_ratio[6] 	0
scalar tree_4_3_u04_r5_network.node[7].core_layer 	interests[7] 	46334
scalar tree_4_3_u04_r5_network.node[7].core_layer 	data[7] 	46331
scalar tree_4_3_u04_r5_network.node[7].content_store 	p_hit[7] 	0
scalar tree_4_3_u04_r5_network.node[7].content_store 	hits[7] 	0
scalar tree_4_3_u04_r5_network.node[7].content_store 	misses[7] 	46334
scalar tree_4_3_u04_r5_network.node[7].content_store 	decision_yes[7] 	0
scalar tree_4_3_u04_r5_network.node[7].content_store 	decision_no[7] 	46325
scalar tree_4_3_u04_r5_network.node[7].content_store 	decision_ratio[7] 	0
scalar tree_4_3_u04_r5_network.node[8].core_layer 	interests[8] 	22541
scalar tree_4_3_u04_r5_network.node[8].core_layer 	data[8] 	22540
scalar tree_4_3_u04_r5_network.node[8].content_store 	p_hit[8] 	0
scalar tree_4_3_u04_r5_network.node[8].content_store 	hits[8] 	0
scalar tree_4_3_u04_r5_network.node[8].content_store 	misses[8] 	22541
scalar tree_4_3_u04_r5_network.node[8].content_store 	decision_yes[8] 	0
scalar tree_4_3_u04_r5_network.node[8].content_store 	decision_no[8] 	22540
scalar tree_4_3_u04_r5_network.node[8].content_store 	decision_ratio[8] 	0
scalar tree_4_3_u04_r5_network.node[9].core_layer 	interests[9] 	32468
scalar tree_4_3_u04_r5_network.node[9].core_layer 	data[9] 	32467
scalar tree_4_3_u04_r5_network.node[9].content_store 	p_hit[9] 	0
scalar tree_4_3_u04_r5_network.node[9].content_store 	hits[9] 	0
scalar tree_4_3_u04_r5_network.node[9].content_store 	misses[9] 	32468
scalar tree_4_3_u04_r5_network.node[9].content_store 	decision_yes[9] 	0
scalar tree_4_3_u04_r5_network.node[9].content_store 	decision_no[9] 	32467
scalar tree_4_3_u04_r5_network.node[9].content_store 	decision_ratio[9] 	0
scalar tree_4_3_u04_r5_network.node[10].core_layer 	interests[10] 	22170
scalar tree_4_3_u04_r5_network.node[10].core_layer 	data[10] 	22171
scalar tree_4_3_u04_r5_network.node[10].content_store 	p_hit[10] 	0
scalar tree_4_3_u04_r5_network.node[10].content_store 	hits[10] 	0
scalar tree_4_3_u04_r5_network.node[10].content_store 	misses[10] 	22170
scalar tree_4_3_u04_r5_network.node[10].content_store 	decision_yes[10] 	0
scalar tree_4_3_u04_r5_network.node[10].content_store 	decision_no[10] 	22170
scalar tree_4_3_u04_r5_network.node[10].content_store 	decision_ratio[10] 	0
scalar tree_4_3_u04_r5_network.node[11].core_layer 	interests[11] 	44469
scalar tree_4_3_u04_r5_network.node[11].core_layer 	data[11] 	44464
scalar tree_4_3_u04_r5_network.node[11].content_store 	p_hit[11] 	0
scalar tree_4_3_u04_r5_network.node[11].content_store 	hits[11] 	0
scalar tree_4_3_u04_r5_network.node[11].content_store 	misses[11] 	44469
scalar tree_4_3_u04_r5_network.node[11].content_store 	decision_yes[11] 	0
scalar tree_4_3_u04_r5_network.node[11].content_store 	decision_no[11] 	44460
scalar tree_4_3_u04_r5_network.node[11].content_store 	decision_ratio[11] 	0
scalar tree_4_3_u04_r5_network.node[12].core_layer 	interests[12] 	34286
scalar tree_4_3_u04_r5_network.node[12].core_layer 	data[12] 	34280
scalar tree_4_3_u04_r5_network.node[12].content_store 	p_hit[12] 	0
scalar tree_4_3_u04_r5_network.node[12].content_store 	hits[12] 	0
scalar tree_4_3_u04_r5_network.node[12].content_store 	misses[12] 	34286
scalar tree_4_3_u04_r5_network.node[12].content_store 	decision_yes[12] 	0
scalar tree_4_3_u04_r5_network.node[12].content_store 	decision_no[12] 	34277
scalar tree_4_3_u04_r5_network.node[12].content_store 	decision_ratio[12] 	0
scalar tree_4_3_u04_r5_network.node[13].core_layer 	interests[13] 	13481
scalar tree_4_3_u04_r5_network.node[13].core_layer 	data[13] 	9995
scalar tree_4_3_u04_r5_network.node[13].content_store 	p_hit[13] 	0.25843780135005
scalar tree_4_3_u04_r5_network.node[13].content_store 	hits[13] 	3484
scalar tree_4_3_u04_r5_network.node[13].content_store 	misses[13] 	9997
scalar tree_4_3_u04_r5_network.node[13].content_store 	decision_yes[13] 	9995
scalar tree_4_3_u04_r5_network.node[13].content_store 	decision_no[13] 	0
scalar tree_4_3_u04_r5_network.node[13].content_store 	decision_ratio[13] 	1
scalar tree_4_3_u04_r5_network.node[14].core_layer 	interests[14] 	13465
scalar tree_4_3_u04_r5_network.node[14].core_layer 	data[14] 	10046
scalar tree_4_3_u04_r5_network.node[14].content_store 	p_hit[14] 	0.25376903082065
scalar tree_4_3_u04_r5_network.node[14].content_store 	hits[14] 	3417
scalar tree_4_3_u04_r5_network.node[14].content_store 	misses[14] 	10048
scalar tree_4_3_u04_r5_network.node[14].content_store 	decision_yes[14] 	10046
scalar tree_4_3_u04_r5_network.node[14].content_store 	decision_no[14] 	0
scalar tree_4_3_u04_r5_network.node[14].content_store 	decision_ratio[14] 	1
scalar tree_4_3_u04_r5_network.node[15].core_layer 	interests[15] 	15985
scalar tree_4_3_u04_r5_network.node[15].core_layer 	data[15] 	10045
scalar tree_4_3_u04_r5_network.node[15].content_store 	p_hit[15] 	0.37166093212387
scalar tree_4_3_u04_r5_network.node[15].content_store 	hits[15] 	5941
scalar tree_4_3_u04_r5_network.node[15].content_store 	misses[15] 	10044
scalar tree_4_3_u04_r5_network.node[15].content_store 	decision_yes[15] 	10045
scalar tree_4_3_u04_r5_network.node[15].content_store 	decision_no[15] 	0
scalar tree_4_3_u04_r5_network.node[15].content_store 	decision_ratio[15] 	1
scalar tree_4_3_u04_r5_network.node[16].core_layer 	interests[16] 	14493
scalar tree_4_3_u04_r5_network.node[16].core_layer 	data[16] 	10117
scalar tree_4_3_u04_r5_network.node[16].content_store 	p_hit[16] 	0.30186986821224
scalar tree_4_3_u04_r5_network.node[16].content_store 	hits[16] 	4375
scalar tree_4_3_u04_r5_network.node[16].content_store 	misses[16] 	10118
scalar tree_4_3_u04_r5_network.node[16].content_store 	decision_yes[16] 	10117
scalar tree_4_3_u04_r5_network.node[16].content_store 	decision_no[16] 	0
scalar tree_4_3_u04_r5_network.node[16].content_store 	decision_ratio[16] 	1
scalar tree_4_3_u04_r5_network.node[17].core_layer 	interests[17] 	13353
scalar tree_4_3_u04_r5_network.node[17].core_layer 	data[17] 	10118
scalar tree_4_3_u04_r5_network.node[17].content_store 	p_hit[17] 	0.24196809705684
scalar tree_4_3_u04_r5_network.node[17].content_store 	hits[17] 	3231
scalar tree_4_3_u04_r5_network.node[17].content_store 	misses[17] 	10122
scalar tree_4_3_u04_r5_network.node[17].content_store 	decision_yes[17] 	10118
scalar tree_4_3_u04_r5_network.node[17].content_store 	decision_no[17] 	0
scalar tree_4_3_u04_r5_network.node[17].content_store 	decision_ratio[17] 	1
scalar tree_4_3_u04_r5_network.node[18].core_layer 	interests[18] 	15488
scalar tree_4_3_u04_r5_network.node[18].core_layer 	data[18] 	9918
scalar tree_4_3_u04_r5_network.node[18].content_store 	p_hit[18] 	0.35956869834711
scalar tree_4_3_u04_r5_network.node[18].content_store 	hits[18] 	5569
scalar tree_4_3_u04_r5_network.node[18].content_store 	misses[18] 	9919
scalar tree_4_3_u04_r5_network.node[18].content_store 	decision_yes[18] 	9918
scalar tree_4_3_u04_r5_network.node[18].content_store 	decision_no[18] 	0
scalar tree_4_3_u04_r5_network.node[18].content_store 	decision_ratio[18] 	1
scalar tree_4_3_u04_r5_network.node[19].core_layer 	interests[19] 	14779
scalar tree_4_3_u04_r5_network.node[19].core_layer 	data[19] 	10032
scalar tree_4_3_u04_r5_network.node[19].content_store 	p_hit[19] 	0.32119899857906
scalar tree_4_3_u04_r5_network.node[19].content_store 	hits[19] 	4747
scalar tree_4_3_u04_r5_network.node[19].content_store 	misses[19] 	10032
scalar tree_4_3_u04_r5_network.node[19].content_store 	decision_yes[19] 	10032
scalar tree_4_3_u04_r5_network.node[19].content_store 	decision_no[19] 	0
scalar tree_4_3_u04_r5_network.node[19].content_store 	decision_ratio[19] 	1
scalar tree_4_3_u04_r5_network.node[20].core_layer 	interests[20] 	14686
scalar tree_4_3_u04_r5_network.node[20].core_layer 	data[20] 	9984
scalar tree_4_3_u04_r5_network.node[20].content_store 	p_hit[20] 	0.32016886830996
scalar tree_4_3_u04_r5_network.node[20].content_store 	hits[20] 	4702
scalar tree_4_3_u04_r5_network.node[20].content_store 	misses[20] 	9984
scalar tree_4_3_u04_r5_network.node[20].content_store 	decision_yes[20] 	9984
scalar tree_4_3_u04_r5_network.node[20].content_store 	decision_no[20] 	0
scalar tree_4_3_u04_r5_network.node[20].content_store 	decision_ratio[20] 	1
scalar tree_4_3_u04_r5_network.node[21].core_layer 	interests[21] 	14656
scalar tree_4_3_u04_r5_network.node[21].core_layer 	data[21] 	9921
scalar tree_4_3_u04_r5_network.node[21].content_store 	p_hit[21] 	0.32307587336245
scalar tree_4_3_u04_r5_network.node[21].content_store 	hits[21] 	4735
scalar tree_4_3_u04_r5_network.node[21].content_store 	misses[21] 	9921
scalar tree_4_3_u04_r5_network.node[21].content_store 	decision_yes[21] 	9921
scalar tree_4_3_u04_r5_network.node[21].content_store 	decision_no[21] 	0
scalar tree_4_3_u04_r5_network.node[21].content_store 	decision_ratio[21] 	1
scalar tree_4_3_u04_r5_network.node[22].core_layer 	interests[22] 	14799
scalar tree_4_3_u04_r5_network.node[22].core_layer 	data[22] 	10059
scalar tree_4_3_u04_r5_network.node[22].content_store 	p_hit[22] 	0.3202243394824
scalar tree_4_3_u04_r5_network.node[22].content_store 	hits[22] 	4739
scalar tree_4_3_u04_r5_network.node[22].content_store 	misses[22] 	10060
scalar tree_4_3_u04_r5_network.node[22].content_store 	decision_yes[22] 	10059
scalar tree_4_3_u04_r5_network.node[22].content_store 	decision_no[22] 	0
scalar tree_4_3_u04_r5_network.node[22].content_store 	decision_ratio[22] 	1
scalar tree_4_3_u04_r5_network.node[23].core_layer 	interests[23] 	14749
scalar tree_4_3_u04_r5_network.node[23].core_layer 	data[23] 	10033
scalar tree_4_3_u04_r5_network.node[23].content_store 	p_hit[23] 	0.31968269035189
scalar tree_4_3_u04_r5_network.node[23].content_store 	hits[23] 	4715
scalar tree_4_3_u04_r5_network.node[23].content_store 	misses[23] 	10034
scalar tree_4_3_u04_r5_network.node[23].content_store 	decision_yes[23] 	10033
scalar tree_4_3_u04_r5_network.node[23].content_store 	decision_no[23] 	0
scalar tree_4_3_u04_r5_network.node[23].content_store 	decision_ratio[23] 	1
scalar tree_4_3_u04_r5_network.node[24].core_layer 	interests[24] 	14748
scalar tree_4_3_u04_r5_network.node[24].core_layer 	data[24] 	10099
scalar tree_4_3_u04_r5_network.node[24].content_store 	p_hit[24] 	0.31522918361812
scalar tree_4_3_u04_r5_network.node[24].content_store 	hits[24] 	4649
scalar tree_4_3_u04_r5_network.node[24].content_store 	misses[24] 	10099
scalar tree_4_3_u04_r5_network.node[24].content_store 	decision_yes[24] 	10099
scalar tree_4_3_u04_r5_network.node[24].content_store 	decision_no[24] 	0
scalar tree_4_3_u04_r5_network.node[24].content_store 	decision_ratio[24] 	1
scalar tree_4_3_u04_r5_network.node[25].core_layer 	interests[25] 	15578
scalar tree_4_3_u04_r5_network.node[25].core_layer 	data[25] 	9711
scalar tree_4_3_u04_r5_network.node[25].content_store 	p_hit[25] 	0.37655668250096
scalar tree_4_3_u04_r5_network.node[25].content_store 	hits[25] 	5866
scalar tree_4_3_u04_r5_network.node[25].content_store 	misses[25] 	9712
scalar tree_4_3_u04_r5_network.node[25].content_store 	decision_yes[25] 	9711
scalar tree_4_3_u04_r5_network.node[25].content_store 	decision_no[25] 	0
scalar tree_4_3_u04_r5_network.node[25].content_store 	decision_ratio[25] 	1
scalar tree_4_3_u04_r5_network.node[26].core_layer 	interests[26] 	13526
scalar tree_4_3_u04_r5_network.node[26].core_layer 	data[26] 	10088
scalar tree_4_3_u04_r5_network.node[26].content_store 	p_hit[26] 	0.25410320863522
scalar tree_4_3_u04_r5_network.node[26].content_store 	hits[26] 	3437
scalar tree_4_3_u04_r5_network.node[26].content_store 	misses[26] 	10089
scalar tree_4_3_u04_r5_network.node[26].content_store 	decision_yes[26] 	10088
scalar tree_4_3_u04_r5_network.node[26].content_store 	decision_no[26] 	0
scalar tree_4_3_u04_r5_network.node[26].content_store 	decision_ratio[26] 	1
scalar tree_4_3_u04_r5_network.node[27].core_layer 	interests[27] 	13650
scalar tree_4_3_u04_r5_network.node[27].core_layer 	data[27] 	10094
scalar tree_4_3_u04_r5_network.node[27].content_store 	p_hit[27] 	0.26051282051282
scalar tree_4_3_u04_r5_network.node[27].content_store 	hits[27] 	3556
scalar tree_4_3_u04_r5_network.node[27].content_store 	misses[27] 	10094
scalar tree_4_3_u04_r5_network.node[27].content_store 	decision_yes[27] 	10094
scalar tree_4_3_u04_r5_network.node[27].content_store 	decision_no[27] 	0
scalar tree_4_3_u04_r5_network.node[27].content_store 	decision_ratio[27] 	1
scalar tree_4_3_u04_r5_network.node[28].core_layer 	interests[28] 	13821
scalar tree_4_3_u04_r5_network.node[28].core_layer 	data[28] 	10041
scalar tree_4_3_u04_r5_network.node[28].content_store 	p_hit[28] 	0.27349685261558
scalar tree_4_3_u04_r5_network.node[28].content_store 	hits[28] 	3780
scalar tree_4_3_u04_r5_network.node[28].content_store 	misses[28] 	10041
scalar tree_4_3_u04_r5_network.node[28].content_store 	decision_yes[28] 	10041
scalar tree_4_3_u04_r5_network.node[28].content_store 	decision_no[28] 	0
scalar tree_4_3_u04_r5_network.node[28].content_store 	decision_ratio[28] 	1
scalar tree_4_3_u04_r5_network.node[29].core_layer 	interests[29] 	13517
scalar tree_4_3_u04_r5_network.node[29].core_layer 	data[29] 	10010
scalar tree_4_3_u04_r5_network.node[29].content_store 	p_hit[29] 	0.25930309980025
scalar tree_4_3_u04_r5_network.node[29].content_store 	hits[29] 	3505
scalar tree_4_3_u04_r5_network.node[29].content_store 	misses[29] 	10012
scalar tree_4_3_u04_r5_network.node[29].content_store 	decision_yes[29] 	10010
scalar tree_4_3_u04_r5_network.node[29].content_store 	decision_no[29] 	0
scalar tree_4_3_u04_r5_network.node[29].content_store 	decision_ratio[29] 	1
scalar tree_4_3_u04_r5_network.node[30].core_layer 	interests[30] 	13471
scalar tree_4_3_u04_r5_network.node[30].core_layer 	data[30] 	9916
scalar tree_4_3_u04_r5_network.node[30].content_store 	p_hit[30] 	0.26390023012397
scalar tree_4_3_u04_r5_network.node[30].content_store 	hits[30] 	3555
scalar tree_4_3_u04_r5_network.node[30].content_store 	misses[30] 	9916
scalar tree_4_3_u04_r5_network.node[30].content_store 	decision_yes[30] 	9916
scalar tree_4_3_u04_r5_network.node[30].content_store 	decision_no[30] 	0
scalar tree_4_3_u04_r5_network.node[30].content_store 	decision_ratio[30] 	1
scalar tree_4_3_u04_r5_network.node[31].core_layer 	interests[31] 	13352
scalar tree_4_3_u04_r5_network.node[31].core_layer 	data[31] 	10176
scalar tree_4_3_u04_r5_network.node[31].content_store 	p_hit[31] 	0.23786698621929
scalar tree_4_3_u04_r5_network.node[31].content_store 	hits[31] 	3176
scalar tree_4_3_u04_r5_network.node[31].content_store 	misses[31] 	10176
scalar tree_4_3_u04_r5_network.node[31].content_store 	decision_yes[31] 	10176
scalar tree_4_3_u04_r5_network.node[31].content_store 	decision_no[31] 	0
scalar tree_4_3_u04_r5_network.node[31].content_store 	decision_ratio[31] 	1
scalar tree_4_3_u04_r5_network.node[32].core_layer 	interests[32] 	15747
scalar tree_4_3_u04_r5_network.node[32].core_layer 	data[32] 	10157
scalar tree_4_3_u04_r5_network.node[32].content_store 	p_hit[32] 	0.35498825173049
scalar tree_4_3_u04_r5_network.node[32].content_store 	hits[32] 	5590
scalar tree_4_3_u04_r5_network.node[32].content_store 	misses[32] 	10157
scalar tree_4_3_u04_r5_network.node[32].content_store 	decision_yes[32] 	10157
scalar tree_4_3_u04_r5_network.node[32].content_store 	decision_no[32] 	0
scalar tree_4_3_u04_r5_network.node[32].content_store 	decision_ratio[32] 	1
scalar tree_4_3_u04_r5_network.node[33].core_layer 	interests[33] 	14494
scalar tree_4_3_u04_r5_network.node[33].core_layer 	data[33] 	9878
scalar tree_4_3_u04_r5_network.node[33].content_store 	p_hit[33] 	0.31854560507796
scalar tree_4_3_u04_r5_network.node[33].content_store 	hits[33] 	4617
scalar tree_4_3_u04_r5_network.node[33].content_store 	misses[33] 	9877
scalar tree_4_3_u04_r5_network.node[33].content_store 	decision_yes[33] 	9878
scalar tree_4_3_u04_r5_network.node[33].content_store 	decision_no[33] 	0
scalar tree_4_3_u04_r5_network.node[33].content_store 	decision_ratio[33] 	1
scalar tree_4_3_u04_r5_network.node[34].core_layer 	interests[34] 	14645
scalar tree_4_3_u04_r5_network.node[34].core_layer 	data[34] 	9870
scalar tree_4_3_u04_r5_network.node[34].content_store 	p_hit[34] 	0.32604984636395
scalar tree_4_3_u04_r5_network.node[34].content_store 	hits[34] 	4775
scalar tree_4_3_u04_r5_network.node[34].content_store 	misses[34] 	9870
scalar tree_4_3_u04_r5_network.node[34].content_store 	decision_yes[34] 	9870
scalar tree_4_3_u04_r5_network.node[34].content_store 	decision_no[34] 	0
scalar tree_4_3_u04_r5_network.node[34].content_store 	decision_ratio[34] 	1
scalar tree_4_3_u04_r5_network.node[35].core_layer 	interests[35] 	14828
scalar tree_4_3_u04_r5_network.node[35].core_layer 	data[35] 	10122
scalar tree_4_3_u04_r5_network.node[35].content_store 	p_hit[35] 	0.31737253844079
scalar tree_4_3_u04_r5_network.node[35].content_store 	hits[35] 	4706
scalar tree_4_3_u04_r5_network.node[35].content_store 	misses[35] 	10122
scalar tree_4_3_u04_r5_network.node[35].content_store 	decision_yes[35] 	10122
scalar tree_4_3_u04_r5_network.node[35].content_store 	decision_no[35] 	0
scalar tree_4_3_u04_r5_network.node[35].content_store 	decision_ratio[35] 	1
scalar tree_4_3_u04_r5_network.node[36].core_layer 	interests[36] 	16486
scalar tree_4_3_u04_r5_network.node[36].core_layer 	data[36] 	10127
scalar tree_4_3_u04_r5_network.node[36].content_store 	p_hit[36] 	0.38572121800315
scalar tree_4_3_u04_r5_network.node[36].content_store 	hits[36] 	6359
scalar tree_4_3_u04_r5_network.node[36].content_store 	misses[36] 	10127
scalar tree_4_3_u04_r5_network.node[36].content_store 	decision_yes[36] 	10127
scalar tree_4_3_u04_r5_network.node[36].content_store 	decision_no[36] 	0
scalar tree_4_3_u04_r5_network.node[36].content_store 	decision_ratio[36] 	1
scalar tree_4_3_u04_r5_network.node[37].core_layer 	interests[37] 	13754
scalar tree_4_3_u04_r5_network.node[37].core_layer 	data[37] 	9949
scalar tree_4_3_u04_r5_network.node[37].content_store 	p_hit[37] 	0.27664679366003
scalar tree_4_3_u04_r5_network.node[37].content_store 	hits[37] 	3805
scalar tree_4_3_u04_r5_network.node[37].content_store 	misses[37] 	9949
scalar tree_4_3_u04_r5_network.node[37].content_store 	decision_yes[37] 	9949
scalar tree_4_3_u04_r5_network.node[37].content_store 	decision_no[37] 	0
scalar tree_4_3_u04_r5_network.node[37].content_store 	decision_ratio[37] 	1
scalar tree_4_3_u04_r5_network.node[38].core_layer 	interests[38] 	13707
scalar tree_4_3_u04_r5_network.node[38].core_layer 	data[38] 	9952
scalar tree_4_3_u04_r5_network.node[38].content_store 	p_hit[38] 	0.2739476180054
scalar tree_4_3_u04_r5_network.node[38].content_store 	hits[38] 	3755
scalar tree_4_3_u04_r5_network.node[38].content_store 	misses[38] 	9952
scalar tree_4_3_u04_r5_network.node[38].content_store 	decision_yes[38] 	9952
scalar tree_4_3_u04_r5_network.node[38].content_store 	decision_no[38] 	0
scalar tree_4_3_u04_r5_network.node[38].content_store 	decision_ratio[38] 	1
scalar tree_4_3_u04_r5_network.node[39].core_layer 	interests[39] 	13873
scalar tree_4_3_u04_r5_network.node[39].core_layer 	data[39] 	10185
scalar tree_4_3_u04_r5_network.node[39].content_store 	p_hit[39] 	0.26584012109854
scalar tree_4_3_u04_r5_network.node[39].content_store 	hits[39] 	3688
scalar tree_4_3_u04_r5_network.node[39].content_store 	misses[39] 	10185
scalar tree_4_3_u04_r5_network.node[39].content_store 	decision_yes[39] 	10185
scalar tree_4_3_u04_r5_network.node[39].content_store 	decision_no[39] 	0
scalar tree_4_3_u04_r5_network.node[39].content_store 	decision_ratio[39] 	1
scalar tree_4_3_u04_r5_network.client[13] 	hdistance[13] 	3.167422334173
scalar tree_4_3_u04_r5_network.client[13] 	downloads[13] 	11910
scalar tree_4_3_u04_r5_network.client[13] 	avg_time[13] 	0.005019471149
scalar tree_4_3_u04_r5_network.client[14] 	hdistance[14] 	3.1680602006689
scalar tree_4_3_u04_r5_network.client[14] 	downloads[14] 	11960
scalar tree_4_3_u04_r5_network.client[14] 	avg_time[14] 	0.005022085075
scalar tree_4_3_u04_r5_network.client[15] 	hdistance[15] 	3.0296491517048
scalar tree_4_3_u04_r5_network.client[15] 	downloads[15] 	12142
scalar tree_4_3_u04_r5_network.client[15] 	avg_time[15] 	0.00484408406
scalar tree_4_3_u04_r5_network.client[16] 	hdistance[16] 	3.0739013012522
scalar tree_4_3_u04_r5_network.client[16] 	downloads[16] 	12219
scalar tree_4_3_u04_r5_network.client[16] 	avg_time[16] 	0.004843553439
scalar tree_4_3_u04_r5_network.client[17] 	hdistance[17] 	3.2157907887066
scalar tree_4_3_u04_r5_network.client[17] 	downloads[17] 	12007
scalar tree_4_3_u04_r5_network.client[17] 	avg_time[17] 	0.005110850343
scalar tree_4_3_u04_r5_network.client[18] 	hdistance[18] 	3.0749579831933
scalar tree_4_3_u04_r5_network.client[18] 	downloads[18] 	11900
scalar tree_4_3_u04_r5_network.client[18] 	avg_time[18] 	0.004916505482
scalar tree_4_3_u04_r5_network.client[19] 	hdistance[19] 	3.1132610508757
scalar tree_4_3_u04_r5_network.client[19] 	downloads[19] 	11990
scalar tree_4_3_u04_r5_network.client[19] 	avg_time[19] 	0.005010107897
scalar tree_4_3_u04_r5_network.client[20] 	hdistance[20] 	3.0896505712618
scalar tree_4_3_u04_r5_network.client[20] 	downloads[20] 	11991
scalar tree_4_3_u04_r5_network.client[20] 	avg_time[20] 	0.004961134349
scalar tree_4_3_u04_r5_network.client[21] 	hdistance[21] 	3.1192320646682
scalar tree_4_3_u04_r5_network.client[21] 	downloads[21] 	11876
scalar tree_4_3_u04_r5_network.client[21] 	avg_time[21] 	0.005018951761
scalar tree_4_3_u04_r5_network.client[22] 	hdistance[22] 	3.1753094680495
scalar tree_4_3_u04_r5_network.client[22] 	downloads[22] 	11956
scalar tree_4_3_u04_r5_network.client[22] 	avg_time[22] 	0.005107668064
scalar tree_4_3_u04_r5_network.client[23] 	hdistance[23] 	3.176123926587
scalar tree_4_3_u04_r5_network.client[23] 	downloads[23] 	11878
scalar tree_4_3_u04_r5_network.client[23] 	avg_time[23] 	0.005125913783
scalar tree_4_3_u04_r5_network.client[24] 	hdistance[24] 	3.1778576804081
scalar tree_4_3_u04_r5_network.client[24] 	downloads[24] 	11959
scalar tree_4_3_u04_r5_network.client[24] 	avg_time[24] 	0.005112473365
scalar tree_4_3_u04_r5_network.client[25] 	hdistance[25] 	3.0603514132926
scalar tree_4_3_u04_r5_network.client[25] 	downloads[25] 	11781
scalar tree_4_3_u04_r5_network.client[25] 	avg_time[25] 	0.004904568411
scalar tree_4_3_u04_r5_network.client[26] 	hdistance[26] 	3.2248411902374
scalar tree_4_3_u04_r5_network.client[26] 	downloads[26] 	11964
scalar tree_4_3_u04_r5_network.client[26] 	avg_time[26] 	0.00513296645
scalar tree_4_3_u04_r5_network.client[27] 	hdistance[27] 	3.2096505823627
scalar tree_4_3_u04_r5_network.client[27] 	downloads[27] 	12020
scalar tree_4_3_u04_r5_network.client[27] 	avg_time[27] 	0.005105155044
scalar tree_4_3_u04_r5_network.client[28] 	hdistance[28] 	3.1818332230311
scalar tree_4_3_u04_r5_network.client[28] 	downloads[28] 	12088
scalar tree_4_3_u04_r5_network.client[28] 	avg_time[28] 	0.005074118963
scalar tree_4_3_u04_r5_network.client[29] 	hdistance[29] 	3.2316250842886
scalar tree_4_3_u04_r5_network.client[29] 	downloads[29] 	11864
scalar tree_4_3_u04_r5_network.client[29] 	avg_time[29] 	0.005143018297
scalar tree_4_3_u04_r5_network.client[30] 	hdistance[30] 	3.2159552845528
scalar tree_4_3_u04_r5_network.client[30] 	downloads[30] 	11808
scalar tree_4_3_u04_r5_network.client[30] 	avg_time[30] 	0.005112243896
scalar tree_4_3_u04_r5_network.client[31] 	hdistance[31] 	3.2337727348573
scalar tree_4_3_u04_r5_network.client[31] 	downloads[31] 	11986
scalar tree_4_3_u04_r5_network.client[31] 	avg_time[31] 	0.005153930009
scalar tree_4_3_u04_r5_network.client[32] 	hdistance[32] 	3.094336516299
scalar tree_4_3_u04_r5_network.client[32] 	downloads[32] 	12148
scalar tree_4_3_u04_r5_network.client[32] 	avg_time[32] 	0.004973819825
scalar tree_4_3_u04_r5_network.client[33] 	hdistance[33] 	3.0384132563394
scalar tree_4_3_u04_r5_network.client[33] 	downloads[33] 	11949
scalar tree_4_3_u04_r5_network.client[33] 	avg_time[33] 	0.004793703615
scalar tree_4_3_u04_r5_network.client[34] 	hdistance[34] 	3.1290268173385
scalar tree_4_3_u04_r5_network.client[34] 	downloads[34] 	11858
scalar tree_4_3_u04_r5_network.client[34] 	avg_time[34] 	0.005044296067
scalar tree_4_3_u04_r5_network.client[35] 	hdistance[35] 	3.1375268284629
scalar tree_4_3_u04_r5_network.client[35] 	downloads[35] 	12114
scalar tree_4_3_u04_r5_network.client[35] 	avg_time[35] 	0.00505618223
scalar tree_4_3_u04_r5_network.client[36] 	hdistance[36] 	3.0346801897595
scalar tree_4_3_u04_r5_network.client[36] 	downloads[36] 	12226
scalar tree_4_3_u04_r5_network.client[36] 	avg_time[36] 	0.004852457342
scalar tree_4_3_u04_r5_network.client[37] 	hdistance[37] 	3.1161149386658
scalar tree_4_3_u04_r5_network.client[37] 	downloads[37] 	11902
scalar tree_4_3_u04_r5_network.client[37] 	avg_time[37] 	0.004934293811
scalar tree_4_3_u04_r5_network.client[38] 	hdistance[38] 	3.1463600236747
scalar tree_4_3_u04_r5_network.client[38] 	downloads[38] 	11827
scalar tree_4_3_u04_r5_network.client[38] 	avg_time[38] 	0.004980688681
scalar tree_4_3_u04_r5_network.client[39] 	hdistance[39] 	3.133751651255
scalar tree_4_3_u04_r5_network.client[39] 	downloads[39] 	12112
scalar tree_4_3_u04_r5_network.client[39] 	avg_time[39] 	0.004965975159
