version 2
run General-94-20160818-19:25:55-19481
attr a 0.9
attr cd lce
attr configname General
attr cr lru
attr datetime 20160818-19:25:55
attr experiment General
attr fsize 1
attr inifile hw5115/scenario_A/EdgeCoop.ini
attr iterationvars "$name=tree_4_3, $un=04, $rep=15, $scenario=Edge, $cd=lce, $cr=lru, $fsize=1, $a=0.9, $sl=nrr, $ttl=1000, $variance=0.05"
attr iterationvars2 "$name=tree_4_3, $un=04, $rep=15, $scenario=Edge, $cd=lce, $cr=lru, $fsize=1, $a=0.9, $sl=nrr, $ttl=1000, $variance=0.05, $repetition=0"
attr measurement "$name=tree_4_3, $un=04, $rep=15, $scenario=Edge, $cd=lce, $cr=lru, $fsize=1, $a=0.9, $sl=nrr, $ttl=1000, $variance=0.05"
attr name tree_4_3
attr network networks.${name}_u${un}_r${rep}_network
attr processid 19481
attr rep 15
attr repetition 0
attr replication #0
attr resultdir results
attr runnumber 94
attr scenario Edge
attr seedset 15
attr sl nrr
attr ttl 1000
attr un 04
attr variance 0.05

scalar . 	a 	0.9
scalar . 	fsize 	1
scalar . 	rep 	15
scalar . 	ttl 	1000
scalar . 	un 	04
scalar . 	variance 	0.05
scalar tree_4_3_u04_r15_network.content_distribution 	repo-0 	0
scalar tree_4_3_u04_r15_network.content_distribution 	client-0 	13
scalar tree_4_3_u04_r15_network.content_distribution 	client-1 	14
scalar tree_4_3_u04_r15_network.content_distribution 	client-2 	15
scalar tree_4_3_u04_r15_network.content_distribution 	client-3 	16
scalar tree_4_3_u04_r15_network.content_distribution 	client-4 	17
scalar tree_4_3_u04_r15_network.content_distribution 	client-5 	18
scalar tree_4_3_u04_r15_network.content_distribution 	client-6 	19
scalar tree_4_3_u04_r15_network.content_distribution 	client-7 	20
scalar tree_4_3_u04_r15_network.content_distribution 	client-8 	21
scalar tree_4_3_u04_r15_network.content_distribution 	client-9 	22
scalar tree_4_3_u04_r15_network.content_distribution 	client-10 	23
scalar tree_4_3_u04_r15_network.content_distribution 	client-11 	24
scalar tree_4_3_u04_r15_network.content_distribution 	client-12 	25
scalar tree_4_3_u04_r15_network.content_distribution 	client-13 	26
scalar tree_4_3_u04_r15_network.content_distribution 	client-14 	27
scalar tree_4_3_u04_r15_network.content_distribution 	client-15 	28
scalar tree_4_3_u04_r15_network.content_distribution 	client-16 	29
scalar tree_4_3_u04_r15_network.content_distribution 	client-17 	30
scalar tree_4_3_u04_r15_network.content_distribution 	client-18 	31
scalar tree_4_3_u04_r15_network.content_distribution 	client-19 	32
scalar tree_4_3_u04_r15_network.content_distribution 	client-20 	33
scalar tree_4_3_u04_r15_network.content_distribution 	client-21 	34
scalar tree_4_3_u04_r15_network.content_distribution 	client-22 	35
scalar tree_4_3_u04_r15_network.content_distribution 	client-23 	36
scalar tree_4_3_u04_r15_network.content_distribution 	client-24 	37
scalar tree_4_3_u04_r15_network.content_distribution 	client-25 	38
scalar tree_4_3_u04_r15_network.content_distribution 	client-26 	39
scalar tree_4_3_u04_r15_network.content_distribution 	repo-0_card 	100000
scalar tree_4_3_u04_r15_network.content_distribution 	repo-0_price 	0
scalar tree_4_3_u04_r15_network.statistics 	stabilization_time 	276.2
scalar tree_4_3_u04_r15_network.statistics 	p_hit 	0.19962026570189
scalar tree_4_3_u04_r15_network.statistics 	interests 	28260.35
scalar tree_4_3_u04_r15_network.statistics 	data 	20139.5
scalar tree_4_3_u04_r15_network.statistics 	hdistance 	3.1252338556889
scalar tree_4_3_u04_r15_network.statistics 	avg_time 	0.004959882165
scalar tree_4_3_u04_r15_network.statistics 	downloads 	324810
scalar tree_4_3_u04_r15_network.statistics 	total_cost 	0
scalar tree_4_3_u04_r15_network.statistics 	total_replicas 	100000
scalar tree_4_3_u04_r15_network.statistics 	inner_hit 	0.35477663865029
scalar tree_4_3_u04_r15_network.node[0].core_layer 	interests[0] 	209575
scalar tree_4_3_u04_r15_network.node[0].core_layer 	repo_load[0] 	209575
scalar tree_4_3_u04_r15_network.node[0].core_layer 	data[0] 	0
scalar tree_4_3_u04_r15_network.node[0].core_layer 	repo_int[0] 	209575
scalar tree_4_3_u04_r15_network.node[0].content_store 	p_hit[0] 	0
scalar tree_4_3_u04_r15_network.node[0].content_store 	hits[0] 	0
scalar tree_4_3_u04_r15_network.node[0].content_store 	misses[0] 	209575
scalar tree_4_3_u04_r15_network.node[0].content_store 	decision_yes[0] 	0
scalar tree_4_3_u04_r15_network.node[0].content_store 	decision_no[0] 	209575
scalar tree_4_3_u04_r15_network.node[0].content_store 	decision_ratio[0] 	0
scalar tree_4_3_u04_r15_network.node[1].core_layer 	interests[1] 	76020
scalar tree_4_3_u04_r15_network.node[1].core_layer 	data[1] 	76019
scalar tree_4_3_u04_r15_network.node[1].content_store 	p_hit[1] 	0
scalar tree_4_3_u04_r15_network.node[1].content_store 	hits[1] 	0
scalar tree_4_3_u04_r15_network.node[1].content_store 	misses[1] 	76020
scalar tree_4_3_u04_r15_network.node[1].content_store 	decision_yes[1] 	0
scalar tree_4_3_u04_r15_network.node[1].content_store 	decision_no[1] 	76017
scalar tree_4_3_u04_r15_network.node[1].content_store 	decision_ratio[1] 	0
scalar tree_4_3_u04_r15_network.node[2].core_layer 	interests[2] 	124630
scalar tree_4_3_u04_r15_network.node[2].core_layer 	data[2] 	124615
scalar tree_4_3_u04_r15_network.node[2].content_store 	p_hit[2] 	0
scalar tree_4_3_u04_r15_network.node[2].content_store 	hits[2] 	0
scalar tree_4_3_u04_r15_network.node[2].content_store 	misses[2] 	124630
scalar tree_4_3_u04_r15_network.node[2].content_store 	decision_yes[2] 	0
scalar tree_4_3_u04_r15_network.node[2].content_store 	decision_no[2] 	124603
scalar tree_4_3_u04_r15_network.node[2].content_store 	decision_ratio[2] 	0
scalar tree_4_3_u04_r15_network.node[3].core_layer 	interests[3] 	35825
scalar tree_4_3_u04_r15_network.node[3].core_layer 	data[3] 	35825
scalar tree_4_3_u04_r15_network.node[3].content_store 	p_hit[3] 	0
scalar tree_4_3_u04_r15_network.node[3].content_store 	hits[3] 	0
scalar tree_4_3_u04_r15_network.node[3].content_store 	misses[3] 	35825
scalar tree_4_3_u04_r15_network.node[3].content_store 	decision_yes[3] 	0
scalar tree_4_3_u04_r15_network.node[3].content_store 	decision_no[3] 	35824
scalar tree_4_3_u04_r15_network.node[3].content_store 	decision_ratio[3] 	0
scalar tree_4_3_u04_r15_network.node[4].core_layer 	interests[4] 	49951
scalar tree_4_3_u04_r15_network.node[4].core_layer 	data[4] 	49950
scalar tree_4_3_u04_r15_network.node[4].content_store 	p_hit[4] 	0
scalar tree_4_3_u04_r15_network.node[4].content_store 	hits[4] 	0
scalar tree_4_3_u04_r15_network.node[4].content_store 	misses[4] 	49951
scalar tree_4_3_u04_r15_network.node[4].content_store 	decision_yes[4] 	0
scalar tree_4_3_u04_r15_network.node[4].content_store 	decision_no[4] 	49946
scalar tree_4_3_u04_r15_network.node[4].content_store 	decision_ratio[4] 	0
scalar tree_4_3_u04_r15_network.node[5].core_layer 	interests[5] 	27329
scalar tree_4_3_u04_r15_network.node[5].core_layer 	data[5] 	27327
scalar tree_4_3_u04_r15_network.node[5].content_store 	p_hit[5] 	0
scalar tree_4_3_u04_r15_network.node[5].content_store 	hits[5] 	0
scalar tree_4_3_u04_r15_network.node[5].content_store 	misses[5] 	27329
scalar tree_4_3_u04_r15_network.node[5].content_store 	decision_yes[5] 	0
scalar tree_4_3_u04_r15_network.node[5].content_store 	decision_no[5] 	27325
scalar tree_4_3_u04_r15_network.node[5].content_store 	decision_ratio[5] 	0
scalar tree_4_3_u04_r15_network.node[6].core_layer 	interests[6] 	21851
scalar tree_4_3_u04_r15_network.node[6].core_layer 	data[6] 	21850
scalar tree_4_3_u04_r15_network.node[6].content_store 	p_hit[6] 	0
scalar tree_4_3_u04_r15_network.node[6].content_store 	hits[6] 	0
scalar tree_4_3_u04_r15_network.node[6].content_store 	misses[6] 	21851
scalar tree_4_3_u04_r15_network.node[6].content_store 	decision_yes[6] 	0
scalar tree_4_3_u04_r15_network.node[6].content_store 	decision_no[6] 	21849
scalar tree_4_3_u04_r15_network.node[6].content_store 	decision_ratio[6] 	0
scalar tree_4_3_u04_r15_network.node[7].core_layer 	interests[7] 	53920
scalar tree_4_3_u04_r15_network.node[7].core_layer 	data[7] 	53918
scalar tree_4_3_u04_r15_network.node[7].content_store 	p_hit[7] 	0
scalar tree_4_3_u04_r15_network.node[7].content_store 	hits[7] 	0
scalar tree_4_3_u04_r15_network.node[7].content_store 	misses[7] 	53920
scalar tree_4_3_u04_r15_network.node[7].content_store 	decision_yes[7] 	0
scalar tree_4_3_u04_r15_network.node[7].content_store 	decision_no[7] 	53912
scalar tree_4_3_u04_r15_network.node[7].content_store 	decision_ratio[7] 	0
scalar tree_4_3_u04_r15_network.node[8].core_layer 	interests[8] 	22992
scalar tree_4_3_u04_r15_network.node[8].core_layer 	data[8] 	22990
scalar tree_4_3_u04_r15_network.node[8].content_store 	p_hit[8] 	0
scalar tree_4_3_u04_r15_network.node[8].content_store 	hits[8] 	0
scalar tree_4_3_u04_r15_network.node[8].content_store 	misses[8] 	22992
scalar tree_4_3_u04_r15_network.node[8].content_store 	decision_yes[8] 	0
scalar tree_4_3_u04_r15_network.node[8].content_store 	decision_no[8] 	22986
scalar tree_4_3_u04_r15_network.node[8].content_store 	decision_ratio[8] 	0
scalar tree_4_3_u04_r15_network.node[9].core_layer 	interests[9] 	23048
scalar tree_4_3_u04_r15_network.node[9].core_layer 	data[9] 	23046
scalar tree_4_3_u04_r15_network.node[9].content_store 	p_hit[9] 	0
scalar tree_4_3_u04_r15_network.node[9].content_store 	hits[9] 	0
scalar tree_4_3_u04_r15_network.node[9].content_store 	misses[9] 	23048
scalar tree_4_3_u04_r15_network.node[9].content_store 	decision_yes[9] 	0
scalar tree_4_3_u04_r15_network.node[9].content_store 	decision_no[9] 	23045
scalar tree_4_3_u04_r15_network.node[9].content_store 	decision_ratio[9] 	0
scalar tree_4_3_u04_r15_network.node[10].core_layer 	interests[10] 	32724
scalar tree_4_3_u04_r15_network.node[10].core_layer 	data[10] 	32718
scalar tree_4_3_u04_r15_network.node[10].content_store 	p_hit[10] 	0
scalar tree_4_3_u04_r15_network.node[10].content_store 	hits[10] 	0
scalar tree_4_3_u04_r15_network.node[10].content_store 	misses[10] 	32724
scalar tree_4_3_u04_r15_network.node[10].content_store 	decision_yes[10] 	0
scalar tree_4_3_u04_r15_network.node[10].content_store 	decision_no[10] 	32716
scalar tree_4_3_u04_r15_network.node[10].content_store 	decision_ratio[10] 	0
scalar tree_4_3_u04_r15_network.node[11].core_layer 	interests[11] 	54533
scalar tree_4_3_u04_r15_network.node[11].core_layer 	data[11] 	54527
scalar tree_4_3_u04_r15_network.node[11].content_store 	p_hit[11] 	0
scalar tree_4_3_u04_r15_network.node[11].content_store 	hits[11] 	0
scalar tree_4_3_u04_r15_network.node[11].content_store 	misses[11] 	54533
scalar tree_4_3_u04_r15_network.node[11].content_store 	decision_yes[11] 	0
scalar tree_4_3_u04_r15_network.node[11].content_store 	decision_no[11] 	54521
scalar tree_4_3_u04_r15_network.node[11].content_store 	decision_ratio[11] 	0
scalar tree_4_3_u04_r15_network.node[12].core_layer 	interests[12] 	11668
scalar tree_4_3_u04_r15_network.node[12].core_layer 	data[12] 	11668
scalar tree_4_3_u04_r15_network.node[12].content_store 	p_hit[12] 	0
scalar tree_4_3_u04_r15_network.node[12].content_store 	hits[12] 	0
scalar tree_4_3_u04_r15_network.node[12].content_store 	misses[12] 	11668
scalar tree_4_3_u04_r15_network.node[12].content_store 	decision_yes[12] 	0
scalar tree_4_3_u04_r15_network.node[12].content_store 	decision_no[12] 	11668
scalar tree_4_3_u04_r15_network.node[12].content_store 	decision_ratio[12] 	0
scalar tree_4_3_u04_r15_network.node[13].core_layer 	interests[13] 	13578
scalar tree_4_3_u04_r15_network.node[13].core_layer 	data[13] 	9998
scalar tree_4_3_u04_r15_network.node[13].content_store 	p_hit[13] 	0.2635881573133
scalar tree_4_3_u04_r15_network.node[13].content_store 	hits[13] 	3579
scalar tree_4_3_u04_r15_network.node[13].content_store 	misses[13] 	9999
scalar tree_4_3_u04_r15_network.node[13].content_store 	decision_yes[13] 	9998
scalar tree_4_3_u04_r15_network.node[13].content_store 	decision_no[13] 	0
scalar tree_4_3_u04_r15_network.node[13].content_store 	decision_ratio[13] 	1
scalar tree_4_3_u04_r15_network.node[14].core_layer 	interests[14] 	13616
scalar tree_4_3_u04_r15_network.node[14].core_layer 	data[14] 	10085
scalar tree_4_3_u04_r15_network.node[14].content_store 	p_hit[14] 	0.25932726204465
scalar tree_4_3_u04_r15_network.node[14].content_store 	hits[14] 	3531
scalar tree_4_3_u04_r15_network.node[14].content_store 	misses[14] 	10085
scalar tree_4_3_u04_r15_network.node[14].content_store 	decision_yes[14] 	10085
scalar tree_4_3_u04_r15_network.node[14].content_store 	decision_no[14] 	0
scalar tree_4_3_u04_r15_network.node[14].content_store 	decision_ratio[14] 	1
scalar tree_4_3_u04_r15_network.node[15].core_layer 	interests[15] 	13685
scalar tree_4_3_u04_r15_network.node[15].core_layer 	data[15] 	9993
scalar tree_4_3_u04_r15_network.node[15].content_store 	p_hit[15] 	0.26978443551334
scalar tree_4_3_u04_r15_network.node[15].content_store 	hits[15] 	3692
scalar tree_4_3_u04_r15_network.node[15].content_store 	misses[15] 	9993
scalar tree_4_3_u04_r15_network.node[15].content_store 	decision_yes[15] 	9993
scalar tree_4_3_u04_r15_network.node[15].content_store 	decision_no[15] 	0
scalar tree_4_3_u04_r15_network.node[15].content_store 	decision_ratio[15] 	1
scalar tree_4_3_u04_r15_network.node[16].core_layer 	interests[16] 	16120
scalar tree_4_3_u04_r15_network.node[16].core_layer 	data[16] 	9992
scalar tree_4_3_u04_r15_network.node[16].content_store 	p_hit[16] 	0.38014888337469
scalar tree_4_3_u04_r15_network.node[16].content_store 	hits[16] 	6128
scalar tree_4_3_u04_r15_network.node[16].content_store 	misses[16] 	9992
scalar tree_4_3_u04_r15_network.node[16].content_store 	decision_yes[16] 	9992
scalar tree_4_3_u04_r15_network.node[16].content_store 	decision_no[16] 	0
scalar tree_4_3_u04_r15_network.node[16].content_store 	decision_ratio[16] 	1
scalar tree_4_3_u04_r15_network.node[17].core_layer 	interests[17] 	14909
scalar tree_4_3_u04_r15_network.node[17].core_layer 	data[17] 	10081
scalar tree_4_3_u04_r15_network.node[17].content_store 	p_hit[17] 	0.323697095714
scalar tree_4_3_u04_r15_network.node[17].content_store 	hits[17] 	4826
scalar tree_4_3_u04_r15_network.node[17].content_store 	misses[17] 	10083
scalar tree_4_3_u04_r15_network.node[17].content_store 	decision_yes[17] 	10081
scalar tree_4_3_u04_r15_network.node[17].content_store 	decision_no[17] 	0
scalar tree_4_3_u04_r15_network.node[17].content_store 	decision_ratio[17] 	1
scalar tree_4_3_u04_r15_network.node[18].core_layer 	interests[18] 	15079
scalar tree_4_3_u04_r15_network.node[18].core_layer 	data[18] 	10133
scalar tree_4_3_u04_r15_network.node[18].content_store 	p_hit[18] 	0.32800583593076
scalar tree_4_3_u04_r15_network.node[18].content_store 	hits[18] 	4946
scalar tree_4_3_u04_r15_network.node[18].content_store 	misses[18] 	10133
scalar tree_4_3_u04_r15_network.node[18].content_store 	decision_yes[18] 	10133
scalar tree_4_3_u04_r15_network.node[18].content_store 	decision_no[18] 	0
scalar tree_4_3_u04_r15_network.node[18].content_store 	decision_ratio[18] 	1
scalar tree_4_3_u04_r15_network.node[19].core_layer 	interests[19] 	14470
scalar tree_4_3_u04_r15_network.node[19].core_layer 	data[19] 	9894
scalar tree_4_3_u04_r15_network.node[19].content_store 	p_hit[19] 	0.3162404975812
scalar tree_4_3_u04_r15_network.node[19].content_store 	hits[19] 	4576
scalar tree_4_3_u04_r15_network.node[19].content_store 	misses[19] 	9894
scalar tree_4_3_u04_r15_network.node[19].content_store 	decision_yes[19] 	9894
scalar tree_4_3_u04_r15_network.node[19].content_store 	decision_no[19] 	0
scalar tree_4_3_u04_r15_network.node[19].content_store 	decision_ratio[19] 	1
scalar tree_4_3_u04_r15_network.node[20].core_layer 	interests[20] 	13226
scalar tree_4_3_u04_r15_network.node[20].core_layer 	data[20] 	10119
scalar tree_4_3_u04_r15_network.node[20].content_store 	p_hit[20] 	0.23484046574928
scalar tree_4_3_u04_r15_network.node[20].content_store 	hits[20] 	3106
scalar tree_4_3_u04_r15_network.node[20].content_store 	misses[20] 	10120
scalar tree_4_3_u04_r15_network.node[20].content_store 	decision_yes[20] 	10119
scalar tree_4_3_u04_r15_network.node[20].content_store 	decision_no[20] 	0
scalar tree_4_3_u04_r15_network.node[20].content_store 	decision_ratio[20] 	1
scalar tree_4_3_u04_r15_network.node[21].core_layer 	interests[21] 	13254
scalar tree_4_3_u04_r15_network.node[21].core_layer 	data[21] 	10064
scalar tree_4_3_u04_r15_network.node[21].content_store 	p_hit[21] 	0.24068205824657
scalar tree_4_3_u04_r15_network.node[21].content_store 	hits[21] 	3190
scalar tree_4_3_u04_r15_network.node[21].content_store 	misses[21] 	10064
scalar tree_4_3_u04_r15_network.node[21].content_store 	decision_yes[21] 	10064
scalar tree_4_3_u04_r15_network.node[21].content_store 	decision_no[21] 	0
scalar tree_4_3_u04_r15_network.node[21].content_store 	decision_ratio[21] 	1
scalar tree_4_3_u04_r15_network.node[22].core_layer 	interests[22] 	14431
scalar tree_4_3_u04_r15_network.node[22].core_layer 	data[22] 	10181
scalar tree_4_3_u04_r15_network.node[22].content_store 	p_hit[22] 	0.29436629478207
scalar tree_4_3_u04_r15_network.node[22].content_store 	hits[22] 	4248
scalar tree_4_3_u04_r15_network.node[22].content_store 	misses[22] 	10183
scalar tree_4_3_u04_r15_network.node[22].content_store 	decision_yes[22] 	10181
scalar tree_4_3_u04_r15_network.node[22].content_store 	decision_no[22] 	0
scalar tree_4_3_u04_r15_network.node[22].content_store 	decision_ratio[22] 	1
scalar tree_4_3_u04_r15_network.node[23].core_layer 	interests[23] 	14328
scalar tree_4_3_u04_r15_network.node[23].core_layer 	data[23] 	10159
scalar tree_4_3_u04_r15_network.node[23].content_store 	p_hit[23] 	0.29089893914015
scalar tree_4_3_u04_r15_network.node[23].content_store 	hits[23] 	4168
scalar tree_4_3_u04_r15_network.node[23].content_store 	misses[23] 	10160
scalar tree_4_3_u04_r15_network.node[23].content_store 	decision_yes[23] 	10159
scalar tree_4_3_u04_r15_network.node[23].content_store 	decision_no[23] 	0
scalar tree_4_3_u04_r15_network.node[23].content_store 	decision_ratio[23] 	1
scalar tree_4_3_u04_r15_network.node[24].core_layer 	interests[24] 	14050
scalar tree_4_3_u04_r15_network.node[24].core_layer 	data[24] 	9978
scalar tree_4_3_u04_r15_network.node[24].content_store 	p_hit[24] 	0.28975088967972
scalar tree_4_3_u04_r15_network.node[24].content_store 	hits[24] 	4071
scalar tree_4_3_u04_r15_network.node[24].content_store 	misses[24] 	9979
scalar tree_4_3_u04_r15_network.node[24].content_store 	decision_yes[24] 	9978
scalar tree_4_3_u04_r15_network.node[24].content_store 	decision_no[24] 	0
scalar tree_4_3_u04_r15_network.node[24].content_store 	decision_ratio[24] 	1
scalar tree_4_3_u04_r15_network.node[25].core_layer 	interests[25] 	15077
scalar tree_4_3_u04_r15_network.node[25].core_layer 	data[25] 	10059
scalar tree_4_3_u04_r15_network.node[25].content_store 	p_hit[25] 	0.33282483252636
scalar tree_4_3_u04_r15_network.node[25].content_store 	hits[25] 	5018
scalar tree_4_3_u04_r15_network.node[25].content_store 	misses[25] 	10059
scalar tree_4_3_u04_r15_network.node[25].content_store 	decision_yes[25] 	10059
scalar tree_4_3_u04_r15_network.node[25].content_store 	decision_no[25] 	0
scalar tree_4_3_u04_r15_network.node[25].content_store 	decision_ratio[25] 	1
scalar tree_4_3_u04_r15_network.node[26].core_layer 	interests[26] 	13843
scalar tree_4_3_u04_r15_network.node[26].core_layer 	data[26] 	10016
scalar tree_4_3_u04_r15_network.node[26].content_store 	p_hit[26] 	0.27638517662356
scalar tree_4_3_u04_r15_network.node[26].content_store 	hits[26] 	3826
scalar tree_4_3_u04_r15_network.node[26].content_store 	misses[26] 	10017
scalar tree_4_3_u04_r15_network.node[26].content_store 	decision_yes[26] 	10016
scalar tree_4_3_u04_r15_network.node[26].content_store 	decision_no[26] 	0
scalar tree_4_3_u04_r15_network.node[26].content_store 	decision_ratio[26] 	1
scalar tree_4_3_u04_r15_network.node[27].core_layer 	interests[27] 	14004
scalar tree_4_3_u04_r15_network.node[27].core_layer 	data[27] 	10145
scalar tree_4_3_u04_r15_network.node[27].content_store 	p_hit[27] 	0.27556412453585
scalar tree_4_3_u04_r15_network.node[27].content_store 	hits[27] 	3859
scalar tree_4_3_u04_r15_network.node[27].content_store 	misses[27] 	10145
scalar tree_4_3_u04_r15_network.node[27].content_store 	decision_yes[27] 	10145
scalar tree_4_3_u04_r15_network.node[27].content_store 	decision_no[27] 	0
scalar tree_4_3_u04_r15_network.node[27].content_store 	decision_ratio[27] 	1
scalar tree_4_3_u04_r15_network.node[28].core_layer 	interests[28] 	15055
scalar tree_4_3_u04_r15_network.node[28].core_layer 	data[28] 	9832
scalar tree_4_3_u04_r15_network.node[28].content_store 	p_hit[28] 	0.3469943540352
scalar tree_4_3_u04_r15_network.node[28].content_store 	hits[28] 	5224
scalar tree_4_3_u04_r15_network.node[28].content_store 	misses[28] 	9831
scalar tree_4_3_u04_r15_network.node[28].content_store 	decision_yes[28] 	9832
scalar tree_4_3_u04_r15_network.node[28].content_store 	decision_no[28] 	0
scalar tree_4_3_u04_r15_network.node[28].content_store 	decision_ratio[28] 	1
scalar tree_4_3_u04_r15_network.node[29].core_layer 	interests[29] 	13752
scalar tree_4_3_u04_r15_network.node[29].core_layer 	data[29] 	10063
scalar tree_4_3_u04_r15_network.node[29].content_store 	p_hit[29] 	0.26817917393834
scalar tree_4_3_u04_r15_network.node[29].content_store 	hits[29] 	3688
scalar tree_4_3_u04_r15_network.node[29].content_store 	misses[29] 	10064
scalar tree_4_3_u04_r15_network.node[29].content_store 	decision_yes[29] 	10063
scalar tree_4_3_u04_r15_network.node[29].content_store 	decision_no[29] 	0
scalar tree_4_3_u04_r15_network.node[29].content_store 	decision_ratio[29] 	1
scalar tree_4_3_u04_r15_network.node[30].core_layer 	interests[30] 	13985
scalar tree_4_3_u04_r15_network.node[30].core_layer 	data[30] 	10193
scalar tree_4_3_u04_r15_network.node[30].content_store 	p_hit[30] 	0.27121916338935
scalar tree_4_3_u04_r15_network.node[30].content_store 	hits[30] 	3793
scalar tree_4_3_u04_r15_network.node[30].content_store 	misses[30] 	10192
scalar tree_4_3_u04_r15_network.node[30].content_store 	decision_yes[30] 	10193
scalar tree_4_3_u04_r15_network.node[30].content_store 	decision_no[30] 	0
scalar tree_4_3_u04_r15_network.node[30].content_store 	decision_ratio[30] 	1
scalar tree_4_3_u04_r15_network.node[31].core_layer 	interests[31] 	13356
scalar tree_4_3_u04_r15_network.node[31].core_layer 	data[31] 	9995
scalar tree_4_3_u04_r15_network.node[31].content_store 	p_hit[31] 	0.25164719976041
scalar tree_4_3_u04_r15_network.node[31].content_store 	hits[31] 	3361
scalar tree_4_3_u04_r15_network.node[31].content_store 	misses[31] 	9995
scalar tree_4_3_u04_r15_network.node[31].content_store 	decision_yes[31] 	9995
scalar tree_4_3_u04_r15_network.node[31].content_store 	decision_no[31] 	0
scalar tree_4_3_u04_r15_network.node[31].content_store 	decision_ratio[31] 	1
scalar tree_4_3_u04_r15_network.node[32].core_layer 	interests[32] 	15505
scalar tree_4_3_u04_r15_network.node[32].core_layer 	data[32] 	9849
scalar tree_4_3_u04_r15_network.node[32].content_store 	p_hit[32] 	0.36472105772332
scalar tree_4_3_u04_r15_network.node[32].content_store 	hits[32] 	5655
scalar tree_4_3_u04_r15_network.node[32].content_store 	misses[32] 	9850
scalar tree_4_3_u04_r15_network.node[32].content_store 	decision_yes[32] 	9849
scalar tree_4_3_u04_r15_network.node[32].content_store 	decision_no[32] 	0
scalar tree_4_3_u04_r15_network.node[32].content_store 	decision_ratio[32] 	1
scalar tree_4_3_u04_r15_network.node[33].core_layer 	interests[33] 	13356
scalar tree_4_3_u04_r15_network.node[33].core_layer 	data[33] 	9964
scalar tree_4_3_u04_r15_network.node[33].content_store 	p_hit[33] 	0.25396825396825
scalar tree_4_3_u04_r15_network.node[33].content_store 	hits[33] 	3392
scalar tree_4_3_u04_r15_network.node[33].content_store 	misses[33] 	9964
scalar tree_4_3_u04_r15_network.node[33].content_store 	decision_yes[33] 	9964
scalar tree_4_3_u04_r15_network.node[33].content_store 	decision_no[33] 	0
scalar tree_4_3_u04_r15_network.node[33].content_store 	decision_ratio[33] 	1
scalar tree_4_3_u04_r15_network.node[34].core_layer 	interests[34] 	15750
scalar tree_4_3_u04_r15_network.node[34].core_layer 	data[34] 	10122
scalar tree_4_3_u04_r15_network.node[34].content_store 	p_hit[34] 	0.35733333333333
scalar tree_4_3_u04_r15_network.node[34].content_store 	hits[34] 	5628
scalar tree_4_3_u04_r15_network.node[34].content_store 	misses[34] 	10122
scalar tree_4_3_u04_r15_network.node[34].content_store 	decision_yes[34] 	10122
scalar tree_4_3_u04_r15_network.node[34].content_store 	decision_no[34] 	0
scalar tree_4_3_u04_r15_network.node[34].content_store 	decision_ratio[34] 	1
scalar tree_4_3_u04_r15_network.node[35].core_layer 	interests[35] 	14728
scalar tree_4_3_u04_r15_network.node[35].core_layer 	data[35] 	10019
scalar tree_4_3_u04_r15_network.node[35].content_store 	p_hit[35] 	0.31966322650733
scalar tree_4_3_u04_r15_network.node[35].content_store 	hits[35] 	4708
scalar tree_4_3_u04_r15_network.node[35].content_store 	misses[35] 	10020
scalar tree_4_3_u04_r15_network.node[35].content_store 	decision_yes[35] 	10019
scalar tree_4_3_u04_r15_network.node[35].content_store 	decision_no[35] 	0
scalar tree_4_3_u04_r15_network.node[35].content_store 	decision_ratio[35] 	1
scalar tree_4_3_u04_r15_network.node[36].core_layer 	interests[36] 	14629
scalar tree_4_3_u04_r15_network.node[36].core_layer 	data[36] 	9930
scalar tree_4_3_u04_r15_network.node[36].content_store 	p_hit[36] 	0.32121129263791
scalar tree_4_3_u04_r15_network.node[36].content_store 	hits[36] 	4699
scalar tree_4_3_u04_r15_network.node[36].content_store 	misses[36] 	9930
scalar tree_4_3_u04_r15_network.node[36].content_store 	decision_yes[36] 	9930
scalar tree_4_3_u04_r15_network.node[36].content_store 	decision_no[36] 	0
scalar tree_4_3_u04_r15_network.node[36].content_store 	decision_ratio[36] 	1
scalar tree_4_3_u04_r15_network.node[37].core_layer 	interests[37] 	13908
scalar tree_4_3_u04_r15_network.node[37].core_layer 	data[37] 	10037
scalar tree_4_3_u04_r15_network.node[37].content_store 	p_hit[37] 	0.27811331607708
scalar tree_4_3_u04_r15_network.node[37].content_store 	hits[37] 	3868
scalar tree_4_3_u04_r15_network.node[37].content_store 	misses[37] 	10040
scalar tree_4_3_u04_r15_network.node[37].content_store 	decision_yes[37] 	10037
scalar tree_4_3_u04_r15_network.node[37].content_store 	decision_no[37] 	0
scalar tree_4_3_u04_r15_network.node[37].content_store 	decision_ratio[37] 	1
scalar tree_4_3_u04_r15_network.node[38].core_layer 	interests[38] 	15634
scalar tree_4_3_u04_r15_network.node[38].core_layer 	data[38] 	10066
scalar tree_4_3_u04_r15_network.node[38].content_store 	p_hit[38] 	0.35614685940898
scalar tree_4_3_u04_r15_network.node[38].content_store 	hits[38] 	5568
scalar tree_4_3_u04_r15_network.node[38].content_store 	misses[38] 	10066
scalar tree_4_3_u04_r15_network.node[38].content_store 	decision_yes[38] 	10066
scalar tree_4_3_u04_r15_network.node[38].content_store 	decision_no[38] 	0
scalar tree_4_3_u04_r15_network.node[38].content_store 	decision_ratio[38] 	1
scalar tree_4_3_u04_r15_network.node[39].core_layer 	interests[39] 	13020
scalar tree_4_3_u04_r15_network.node[39].core_layer 	data[39] 	10160
scalar tree_4_3_u04_r15_network.node[39].content_store 	p_hit[39] 	0.21950844854071
scalar tree_4_3_u04_r15_network.node[39].content_store 	hits[39] 	2858
scalar tree_4_3_u04_r15_network.node[39].content_store 	misses[39] 	10162
scalar tree_4_3_u04_r15_network.node[39].content_store 	decision_yes[39] 	10160
scalar tree_4_3_u04_r15_network.node[39].content_store 	decision_no[39] 	0
scalar tree_4_3_u04_r15_network.node[39].content_store 	decision_ratio[39] 	1
scalar tree_4_3_u04_r15_network.client[13] 	hdistance[13] 	3.1130231392532
scalar tree_4_3_u04_r15_network.client[13] 	downloads[13] 	11971
scalar tree_4_3_u04_r15_network.client[13] 	avg_time[13] 	0.004864337572
scalar tree_4_3_u04_r15_network.client[14] 	hdistance[14] 	3.1356750457799
scalar tree_4_3_u04_r15_network.client[14] 	downloads[14] 	12014
scalar tree_4_3_u04_r15_network.client[14] 	avg_time[14] 	0.004901256199
scalar tree_4_3_u04_r15_network.client[15] 	hdistance[15] 	3.09211398277
scalar tree_4_3_u04_r15_network.client[15] 	downloads[15] 	12072
scalar tree_4_3_u04_r15_network.client[15] 	avg_time[15] 	0.004835318362
scalar tree_4_3_u04_r15_network.client[16] 	hdistance[16] 	3.0635317658829
scalar tree_4_3_u04_r15_network.client[16] 	downloads[16] 	11994
scalar tree_4_3_u04_r15_network.client[16] 	avg_time[16] 	0.004914546971
scalar tree_4_3_u04_r15_network.client[17] 	hdistance[17] 	3.1750682890489
scalar tree_4_3_u04_r15_network.client[17] 	downloads[17] 	12081
scalar tree_4_3_u04_r15_network.client[17] 	avg_time[17] 	0.005138309998
scalar tree_4_3_u04_r15_network.client[18] 	hdistance[18] 	3.1649001725413
scalar tree_4_3_u04_r15_network.client[18] 	downloads[18] 	12171
scalar tree_4_3_u04_r15_network.client[18] 	avg_time[18] 	0.005119872047
scalar tree_4_3_u04_r15_network.client[19] 	hdistance[19] 	3.0503585125896
scalar tree_4_3_u04_r15_network.client[19] 	downloads[19] 	11994
scalar tree_4_3_u04_r15_network.client[19] 	avg_time[19] 	0.004741365198
scalar tree_4_3_u04_r15_network.client[20] 	hdistance[20] 	3.210355987055
scalar tree_4_3_u04_r15_network.client[20] 	downloads[20] 	12051
scalar tree_4_3_u04_r15_network.client[20] 	avg_time[20] 	0.005048970205
scalar tree_4_3_u04_r15_network.client[21] 	hdistance[21] 	3.2218601153171
scalar tree_4_3_u04_r15_network.client[21] 	downloads[21] 	11967
scalar tree_4_3_u04_r15_network.client[21] 	avg_time[21] 	0.005073244027
scalar tree_4_3_u04_r15_network.client[22] 	hdistance[22] 	3.1107833497214
scalar tree_4_3_u04_r15_network.client[22] 	downloads[22] 	12204
scalar tree_4_3_u04_r15_network.client[22] 	avg_time[22] 	0.004956314984
scalar tree_4_3_u04_r15_network.client[23] 	hdistance[23] 	3.1297470961364
scalar tree_4_3_u04_r15_network.client[23] 	downloads[23] 	12139
scalar tree_4_3_u04_r15_network.client[23] 	avg_time[23] 	0.004987734602
scalar tree_4_3_u04_r15_network.client[24] 	hdistance[24] 	3.132639355272
scalar tree_4_3_u04_r15_network.client[24] 	downloads[24] 	11912
scalar tree_4_3_u04_r15_network.client[24] 	avg_time[24] 	0.004994346812
scalar tree_4_3_u04_r15_network.client[25] 	hdistance[25] 	3.0824253514098
scalar tree_4_3_u04_r15_network.client[25] 	downloads[25] 	12023
scalar tree_4_3_u04_r15_network.client[25] 	avg_time[25] 	0.004889126194
scalar tree_4_3_u04_r15_network.client[26] 	hdistance[26] 	3.1825205616017
scalar tree_4_3_u04_r15_network.client[26] 	downloads[26] 	12037
scalar tree_4_3_u04_r15_network.client[26] 	avg_time[26] 	0.005109678171
scalar tree_4_3_u04_r15_network.client[27] 	hdistance[27] 	3.1871965769769
scalar tree_4_3_u04_r15_network.client[27] 	downloads[27] 	12153
scalar tree_4_3_u04_r15_network.client[27] 	avg_time[27] 	0.005108365237
scalar tree_4_3_u04_r15_network.client[28] 	hdistance[28] 	3.057781526782
scalar tree_4_3_u04_r15_network.client[28] 	downloads[28] 	11855
scalar tree_4_3_u04_r15_network.client[28] 	avg_time[28] 	0.004843691644
scalar tree_4_3_u04_r15_network.client[29] 	hdistance[29] 	3.2134080080247
scalar tree_4_3_u04_r15_network.client[29] 	downloads[29] 	11963
scalar tree_4_3_u04_r15_network.client[29] 	avg_time[29] 	0.005154098212
scalar tree_4_3_u04_r15_network.client[30] 	hdistance[30] 	3.2014820913956
scalar tree_4_3_u04_r15_network.client[30] 	downloads[30] 	12145
scalar tree_4_3_u04_r15_network.client[30] 	avg_time[30] 	0.005137546412
scalar tree_4_3_u04_r15_network.client[31] 	hdistance[31] 	3.1210979998326
scalar tree_4_3_u04_r15_network.client[31] 	downloads[31] 	11949
scalar tree_4_3_u04_r15_network.client[31] 	avg_time[31] 	0.004880996534
scalar tree_4_3_u04_r15_network.client[32] 	hdistance[32] 	3.0334397580238
scalar tree_4_3_u04_r15_network.client[32] 	downloads[32] 	11902
scalar tree_4_3_u04_r15_network.client[32] 	avg_time[32] 	0.004833568864
scalar tree_4_3_u04_r15_network.client[33] 	hdistance[33] 	3.1072918404806
scalar tree_4_3_u04_r15_network.client[33] 	downloads[33] 	11986
scalar tree_4_3_u04_r15_network.client[33] 	avg_time[33] 	0.004849821794
scalar tree_4_3_u04_r15_network.client[34] 	hdistance[34] 	3.0284170010646
scalar tree_4_3_u04_r15_network.client[34] 	downloads[34] 	12211
scalar tree_4_3_u04_r15_network.client[34] 	avg_time[34] 	0.004830230436
scalar tree_4_3_u04_r15_network.client[35] 	hdistance[35] 	3.1071279699875
scalar tree_4_3_u04_r15_network.client[35] 	downloads[35] 	11995
scalar tree_4_3_u04_r15_network.client[35] 	avg_time[35] 	0.004988566547
scalar tree_4_3_u04_r15_network.client[36] 	hdistance[36] 	3.1041614123581
scalar tree_4_3_u04_r15_network.client[36] 	downloads[36] 	11895
scalar tree_4_3_u04_r15_network.client[36] 	avg_time[36] 	0.004984778185
scalar tree_4_3_u04_r15_network.client[37] 	hdistance[37] 	3.099077954736
scalar tree_4_3_u04_r15_network.client[37] 	downloads[37] 	11930
scalar tree_4_3_u04_r15_network.client[37] 	avg_time[37] 	0.004817958307
scalar tree_4_3_u04_r15_network.client[38] 	hdistance[38] 	3.0469123588095
scalar tree_4_3_u04_r15_network.client[38] 	downloads[38] 	12129
scalar tree_4_3_u04_r15_network.client[38] 	avg_time[38] 	0.004866120485
scalar tree_4_3_u04_r15_network.client[39] 	hdistance[39] 	3.2089168807492
scalar tree_4_3_u04_r15_network.client[39] 	downloads[39] 	12067
scalar tree_4_3_u04_r15_network.client[39] 	avg_time[39] 	0.005046654474
