version 2
run General-46-20160823-13:11:22-12979
attr D wfc0.25
attr F nrr
attr R lru
attr a 0.9
attr configname General
attr datetime 20160823-13:11:22
attr experiment General
attr inifile hw5115/scenario_B/bus.ini
attr iterationvars "$net=bus, $rep=0, $a=0.9, $F=nrr, $D=wfc0.25, $R=lru, $window=60, $variance=0.05, $mytime=600, $test=test"
attr iterationvars2 "$net=bus, $rep=0, $a=0.9, $F=nrr, $D=wfc0.25, $R=lru, $window=60, $variance=0.05, $mytime=600, $test=test, $repetition=0"
attr measurement "$net=bus, $rep=0, $a=0.9, $F=nrr, $D=wfc0.25, $R=lru, $window=60, $variance=0.05, $mytime=600, $test=test"
attr mytime 600
attr net bus
attr network networks.${net=bus}_network
attr processid 12979
attr rep 0
attr repetition 0
attr replication #0
attr resultdir results
attr runnumber 46
attr seedset 0
attr test test
attr variance 0.05
attr window 60

scalar . 	a 	0.9
scalar . 	mytime 	600
scalar . 	rep 	0
scalar . 	variance 	0.05
scalar . 	window 	60
scalar bus_network.content_distribution 	repo-0 	9
scalar bus_network.content_distribution 	client-0 	5
scalar bus_network.content_distribution 	client-1 	8
scalar bus_network.content_distribution 	client-2 	9
scalar bus_network.content_distribution 	client-3 	0
scalar bus_network.content_distribution 	client-4 	1
scalar bus_network.content_distribution 	client-5 	7
scalar bus_network.content_distribution 	client-6 	6
scalar bus_network.content_distribution 	client-7 	2
scalar bus_network.content_distribution 	client-8 	4
scalar bus_network.content_distribution 	client-9 	3
scalar bus_network.content_distribution 	repo-0_card 	100000
scalar bus_network.content_distribution 	repo-0_price 	0
scalar bus_network.statistics 	stabilization_time 	394
scalar bus_network.statistics 	p_hit 	0.088285762767418
scalar bus_network.statistics 	interests 	53110
scalar bus_network.statistics 	data 	41132.1
scalar bus_network.statistics 	hdistance 	4.1748251056814
scalar bus_network.statistics 	avg_time 	0.006868420617
scalar bus_network.statistics 	downloads 	119771
scalar bus_network.statistics 	total_cost 	0
scalar bus_network.statistics 	total_replicas 	100000
scalar bus_network.statistics 	inner_hit 	0.26009635053561
scalar bus_network.node[0].core_layer 	interests[0] 	13149
scalar bus_network.node[0].core_layer 	data[0] 	9657
scalar bus_network.node[0].core_layer 	repo_int[0] 	88619
scalar bus_network.node[0].content_store 	p_hit[0] 	0.26541942353031
scalar bus_network.node[0].content_store 	hits[0] 	3490
scalar bus_network.node[0].content_store 	misses[0] 	9659
scalar bus_network.node[0].content_store 	decision_yes[0] 	2506
scalar bus_network.node[0].content_store 	decision_no[0] 	7151
scalar bus_network.node[0].content_store 	decision_ratio[0] 	0.25950088019054
scalar bus_network.node[1].core_layer 	interests[1] 	23284
scalar bus_network.node[1].core_layer 	data[1] 	19490
scalar bus_network.node[1].content_store 	p_hit[1] 	0.16285861535819
scalar bus_network.node[1].content_store 	hits[1] 	3792
scalar bus_network.node[1].content_store 	misses[1] 	19492
scalar bus_network.node[1].content_store 	decision_yes[1] 	4985
scalar bus_network.node[1].content_store 	decision_no[1] 	14505
scalar bus_network.node[1].content_store 	decision_ratio[1] 	0.25577219086711
scalar bus_network.node[2].core_layer 	interests[2] 	32732
scalar bus_network.node[2].core_layer 	data[2] 	28949
scalar bus_network.node[2].content_store 	p_hit[2] 	0.11551387021875
scalar bus_network.node[2].content_store 	hits[2] 	3781
scalar bus_network.node[2].content_store 	misses[2] 	28951
scalar bus_network.node[2].content_store 	decision_yes[2] 	7491
scalar bus_network.node[2].content_store 	decision_no[2] 	21458
scalar bus_network.node[2].content_store 	decision_ratio[2] 	0.25876541504024
scalar bus_network.node[3].core_layer 	interests[3] 	41623
scalar bus_network.node[3].core_layer 	data[3] 	38075
scalar bus_network.node[3].content_store 	p_hit[3] 	0.085097181846575
scalar bus_network.node[3].content_store 	hits[3] 	3542
scalar bus_network.node[3].content_store 	misses[3] 	38081
scalar bus_network.node[3].content_store 	decision_yes[3] 	9817
scalar bus_network.node[3].content_store 	decision_no[3] 	28258
scalar bus_network.node[3].content_store 	decision_ratio[3] 	0.2578332239002
scalar bus_network.node[4].core_layer 	interests[4] 	50017
scalar bus_network.node[4].core_layer 	data[4] 	46540
scalar bus_network.node[4].content_store 	p_hit[4] 	0.069436391626847
scalar bus_network.node[4].content_store 	hits[4] 	3473
scalar bus_network.node[4].content_store 	misses[4] 	46544
scalar bus_network.node[4].content_store 	decision_yes[4] 	11947
scalar bus_network.node[4].content_store 	decision_no[4] 	34593
scalar bus_network.node[4].content_store 	decision_ratio[4] 	0.25670391061453
scalar bus_network.node[5].core_layer 	interests[5] 	57884
scalar bus_network.node[5].core_layer 	data[5] 	54892
scalar bus_network.node[5].content_store 	p_hit[5] 	0.051655034206344
scalar bus_network.node[5].content_store 	hits[5] 	2990
scalar bus_network.node[5].content_store 	misses[5] 	54894
scalar bus_network.node[5].content_store 	decision_yes[5] 	14079
scalar bus_network.node[5].content_store 	decision_no[5] 	40813
scalar bus_network.node[5].content_store 	decision_ratio[5] 	0.25648546236246
scalar bus_network.node[6].core_layer 	interests[6] 	65831
scalar bus_network.node[6].core_layer 	data[6] 	62749
scalar bus_network.node[6].content_store 	p_hit[6] 	0.046786468381158
scalar bus_network.node[6].content_store 	hits[6] 	3080
scalar bus_network.node[6].content_store 	misses[6] 	62751
scalar bus_network.node[6].content_store 	decision_yes[6] 	15808
scalar bus_network.node[6].content_store 	decision_no[6] 	46941
scalar bus_network.node[6].content_store 	decision_ratio[6] 	0.25192433345551
scalar bus_network.node[7].core_layer 	interests[7] 	73895
scalar bus_network.node[7].core_layer 	data[7] 	71239
scalar bus_network.node[7].content_store 	p_hit[7] 	0.035888761079911
scalar bus_network.node[7].content_store 	hits[7] 	2652
scalar bus_network.node[7].content_store 	misses[7] 	71243
scalar bus_network.node[7].content_store 	decision_yes[7] 	17895
scalar bus_network.node[7].content_store 	decision_no[7] 	53344
scalar bus_network.node[7].content_store 	decision_ratio[7] 	0.25119667597805
scalar bus_network.node[8].core_layer 	interests[8] 	81790
scalar bus_network.node[8].core_layer 	data[8] 	79730
scalar bus_network.node[8].content_store 	p_hit[8] 	0.025162000244529
scalar bus_network.node[8].content_store 	hits[8] 	2058
scalar bus_network.node[8].content_store 	misses[8] 	79732
scalar bus_network.node[8].content_store 	decision_yes[8] 	20255
scalar bus_network.node[8].content_store 	decision_no[8] 	59475
scalar bus_network.node[8].content_store 	decision_ratio[8] 	0.25404490154271
scalar bus_network.node[9].core_layer 	interests[9] 	90895
scalar bus_network.node[9].core_layer 	repo_load[9] 	88619
scalar bus_network.node[9].core_layer 	data[9] 	0
scalar bus_network.node[9].content_store 	p_hit[9] 	0.025039881181583
scalar bus_network.node[9].content_store 	hits[9] 	2276
scalar bus_network.node[9].content_store 	misses[9] 	88619
scalar bus_network.node[9].content_store 	decision_yes[9] 	22681
scalar bus_network.node[9].content_store 	decision_no[9] 	65938
scalar bus_network.node[9].content_store 	decision_ratio[9] 	0.25593834279331
scalar bus_network.client[0] 	hdistance[0] 	7.325723738627
scalar bus_network.client[0] 	downloads[0] 	12090
scalar bus_network.client[0] 	avg_time[0] 	0.013253190056
scalar bus_network.client[1] 	hdistance[1] 	6.5868085106383
scalar bus_network.client[1] 	downloads[1] 	11750
scalar bus_network.client[1] 	avg_time[1] 	0.011771346805
scalar bus_network.client[2] 	hdistance[2] 	5.8620689655173
scalar bus_network.client[2] 	downloads[2] 	11919
scalar bus_network.client[2] 	avg_time[2] 	0.01032610562
scalar bus_network.client[3] 	hdistance[3] 	5.2252177519702
scalar bus_network.client[3] 	downloads[3] 	12055
scalar bus_network.client[3] 	avg_time[3] 	0.009036726048
scalar bus_network.client[4] 	hdistance[4] 	4.4941943028987
scalar bus_network.client[4] 	downloads[4] 	11971
scalar bus_network.client[4] 	avg_time[4] 	0.007593905174
scalar bus_network.client[5] 	hdistance[5] 	3.9002717615087
scalar bus_network.client[5] 	downloads[5] 	12143
scalar bus_network.client[5] 	avg_time[5] 	0.006392078058
scalar bus_network.client[6] 	hdistance[6] 	3.2149291075897
scalar bus_network.client[6] 	downloads[6] 	11990
scalar bus_network.client[6] 	avg_time[6] 	0.004974215211
scalar bus_network.client[7] 	hdistance[7] 	2.5024066390041
scalar bus_network.client[7] 	downloads[7] 	12050
scalar bus_network.client[7] 	avg_time[7] 	0.003469632286
scalar bus_network.client[8] 	hdistance[8] 	1.7390056554402
scalar bus_network.client[8] 	downloads[8] 	11847
scalar bus_network.client[8] 	avg_time[8] 	0.001867006913
scalar bus_network.client[9] 	hdistance[9] 	0.89762462361994
scalar bus_network.client[9] 	downloads[9] 	11956
scalar bus_network.client[9] 	avg_time[9] 	0
