version 2
run General-114-20160831-21:42:16-8710
attr a 0.9
attr cd ffc
attr configname General
attr cr lru
attr datetime 20160831-21:42:16
attr experiment General
attr fsize 1
attr inifile hw5115/scenario_Y/omnetp.ini
attr iterationvars "$name=tree_4_3, $un=01, $rep=19, $cd=ffc, $cr=lru, $fsize=1, $a=0.9, $sl=nrr, $ttl=1000, $variance=0.05"
attr iterationvars2 "$name=tree_4_3, $un=01, $rep=19, $cd=ffc, $cr=lru, $fsize=1, $a=0.9, $sl=nrr, $ttl=1000, $variance=0.05, $repetition=0"
attr measurement "$name=tree_4_3, $un=01, $rep=19, $cd=ffc, $cr=lru, $fsize=1, $a=0.9, $sl=nrr, $ttl=1000, $variance=0.05"
attr name tree_4_3
attr network networks.${name}_u${un}_r${rep}_network
attr processid 8710
attr rep 19
attr repetition 0
attr replication #0
attr resultdir results
attr runnumber 114
attr seedset 19
attr sl nrr
attr ttl 1000
attr un 01
attr variance 0.05

scalar . 	a 	0.9
scalar . 	fsize 	1
scalar . 	rep 	19
scalar . 	ttl 	1000
scalar . 	un 	01
scalar . 	variance 	0.05
scalar tree_4_3_u01_r19_network.content_distribution 	repo-0 	0
scalar tree_4_3_u01_r19_network.content_distribution 	client-0 	13
scalar tree_4_3_u01_r19_network.content_distribution 	client-1 	14
scalar tree_4_3_u01_r19_network.content_distribution 	client-2 	15
scalar tree_4_3_u01_r19_network.content_distribution 	client-3 	16
scalar tree_4_3_u01_r19_network.content_distribution 	client-4 	17
scalar tree_4_3_u01_r19_network.content_distribution 	client-5 	18
scalar tree_4_3_u01_r19_network.content_distribution 	client-6 	19
scalar tree_4_3_u01_r19_network.content_distribution 	client-7 	20
scalar tree_4_3_u01_r19_network.content_distribution 	client-8 	21
scalar tree_4_3_u01_r19_network.content_distribution 	client-9 	22
scalar tree_4_3_u01_r19_network.content_distribution 	client-10 	23
scalar tree_4_3_u01_r19_network.content_distribution 	client-11 	24
scalar tree_4_3_u01_r19_network.content_distribution 	client-12 	25
scalar tree_4_3_u01_r19_network.content_distribution 	client-13 	26
scalar tree_4_3_u01_r19_network.content_distribution 	client-14 	27
scalar tree_4_3_u01_r19_network.content_distribution 	client-15 	28
scalar tree_4_3_u01_r19_network.content_distribution 	client-16 	29
scalar tree_4_3_u01_r19_network.content_distribution 	client-17 	30
scalar tree_4_3_u01_r19_network.content_distribution 	client-18 	31
scalar tree_4_3_u01_r19_network.content_distribution 	client-19 	32
scalar tree_4_3_u01_r19_network.content_distribution 	client-20 	33
scalar tree_4_3_u01_r19_network.content_distribution 	client-21 	34
scalar tree_4_3_u01_r19_network.content_distribution 	client-22 	35
scalar tree_4_3_u01_r19_network.content_distribution 	client-23 	36
scalar tree_4_3_u01_r19_network.content_distribution 	client-24 	37
scalar tree_4_3_u01_r19_network.content_distribution 	client-25 	38
scalar tree_4_3_u01_r19_network.content_distribution 	client-26 	39
scalar tree_4_3_u01_r19_network.content_distribution 	repo-0_card 	100000
scalar tree_4_3_u01_r19_network.content_distribution 	repo-0_price 	0
scalar tree_4_3_u01_r19_network.statistics 	stabilization_time 	976.8
scalar tree_4_3_u01_r19_network.statistics 	p_hit 	0.2239801378314
scalar tree_4_3_u01_r19_network.statistics 	interests 	24975.1
scalar tree_4_3_u01_r19_network.statistics 	data 	16876.625
scalar tree_4_3_u01_r19_network.statistics 	hdistance 	2.675170373741
scalar tree_4_3_u01_r19_network.statistics 	avg_time 	0.004167906973
scalar tree_4_3_u01_r19_network.statistics 	downloads 	323935
scalar tree_4_3_u01_r19_network.statistics 	total_cost 	0
scalar tree_4_3_u01_r19_network.statistics 	total_replicas 	100000
scalar tree_4_3_u01_r19_network.statistics 	inner_hit 	0.40878880022227
scalar tree_4_3_u01_r19_network.node[0].core_layer 	interests[0] 	194648
scalar tree_4_3_u01_r19_network.node[0].core_layer 	repo_load[0] 	191514
scalar tree_4_3_u01_r19_network.node[0].core_layer 	data[0] 	0
scalar tree_4_3_u01_r19_network.node[0].core_layer 	repo_int[0] 	191514
scalar tree_4_3_u01_r19_network.node[0].content_store 	p_hit[0] 	0.016100858986478
scalar tree_4_3_u01_r19_network.node[0].content_store 	hits[0] 	3134
scalar tree_4_3_u01_r19_network.node[0].content_store 	misses[0] 	191514
scalar tree_4_3_u01_r19_network.node[0].content_store 	decision_yes[0] 	917
scalar tree_4_3_u01_r19_network.node[0].content_store 	decision_no[0] 	190597
scalar tree_4_3_u01_r19_network.node[0].content_store 	decision_ratio[0] 	0.0047881617009723
scalar tree_4_3_u01_r19_network.node[1].core_layer 	interests[1] 	68653
scalar tree_4_3_u01_r19_network.node[1].core_layer 	data[1] 	67053
scalar tree_4_3_u01_r19_network.node[1].content_store 	p_hit[1] 	0.023291043362999
scalar tree_4_3_u01_r19_network.node[1].content_store 	hits[1] 	1599
scalar tree_4_3_u01_r19_network.node[1].content_store 	misses[1] 	67054
scalar tree_4_3_u01_r19_network.node[1].content_store 	decision_yes[1] 	357
scalar tree_4_3_u01_r19_network.node[1].content_store 	decision_no[1] 	66696
scalar tree_4_3_u01_r19_network.node[1].content_store 	decision_ratio[1] 	0.0053241465706232
scalar tree_4_3_u01_r19_network.node[2].core_layer 	interests[2] 	71808
scalar tree_4_3_u01_r19_network.node[2].core_layer 	data[2] 	69854
scalar tree_4_3_u01_r19_network.node[2].content_store 	p_hit[2] 	0.027211452762923
scalar tree_4_3_u01_r19_network.node[2].content_store 	hits[2] 	1954
scalar tree_4_3_u01_r19_network.node[2].content_store 	misses[2] 	69854
scalar tree_4_3_u01_r19_network.node[2].content_store 	decision_yes[2] 	502
scalar tree_4_3_u01_r19_network.node[2].content_store 	decision_no[2] 	69352
scalar tree_4_3_u01_r19_network.node[2].content_store 	decision_ratio[2] 	0.0071864173848312
scalar tree_4_3_u01_r19_network.node[3].core_layer 	interests[3] 	74289
scalar tree_4_3_u01_r19_network.node[3].core_layer 	data[3] 	71417
scalar tree_4_3_u01_r19_network.node[3].content_store 	p_hit[3] 	0.038659828507585
scalar tree_4_3_u01_r19_network.node[3].content_store 	hits[3] 	2872
scalar tree_4_3_u01_r19_network.node[3].content_store 	misses[3] 	71417
scalar tree_4_3_u01_r19_network.node[3].content_store 	decision_yes[3] 	547
scalar tree_4_3_u01_r19_network.node[3].content_store 	decision_no[3] 	70869
scalar tree_4_3_u01_r19_network.node[3].content_store 	decision_ratio[3] 	0.007659348045256
scalar tree_4_3_u01_r19_network.node[4].core_layer 	interests[4] 	26518
scalar tree_4_3_u01_r19_network.node[4].core_layer 	data[4] 	24825
scalar tree_4_3_u01_r19_network.node[4].content_store 	p_hit[4] 	0.063843427106117
scalar tree_4_3_u01_r19_network.node[4].content_store 	hits[4] 	1693
scalar tree_4_3_u01_r19_network.node[4].content_store 	misses[4] 	24825
scalar tree_4_3_u01_r19_network.node[4].content_store 	decision_yes[4] 	234
scalar tree_4_3_u01_r19_network.node[4].content_store 	decision_no[4] 	24591
scalar tree_4_3_u01_r19_network.node[4].content_store 	decision_ratio[4] 	0.0094259818731118
scalar tree_4_3_u01_r19_network.node[5].core_layer 	interests[5] 	26718
scalar tree_4_3_u01_r19_network.node[5].core_layer 	data[5] 	24529
scalar tree_4_3_u01_r19_network.node[5].content_store 	p_hit[5] 	0.081892357212366
scalar tree_4_3_u01_r19_network.node[5].content_store 	hits[5] 	2188
scalar tree_4_3_u01_r19_network.node[5].content_store 	misses[5] 	24530
scalar tree_4_3_u01_r19_network.node[5].content_store 	decision_yes[5] 	213
scalar tree_4_3_u01_r19_network.node[5].content_store 	decision_no[5] 	24316
scalar tree_4_3_u01_r19_network.node[5].content_store 	decision_ratio[5] 	0.0086835990052591
scalar tree_4_3_u01_r19_network.node[6].core_layer 	interests[6] 	30584
scalar tree_4_3_u01_r19_network.node[6].core_layer 	data[6] 	26871
scalar tree_4_3_u01_r19_network.node[6].content_store 	p_hit[6] 	0.12137065132095
scalar tree_4_3_u01_r19_network.node[6].content_store 	hits[6] 	3712
scalar tree_4_3_u01_r19_network.node[6].content_store 	misses[6] 	26872
scalar tree_4_3_u01_r19_network.node[6].content_store 	decision_yes[6] 	395
scalar tree_4_3_u01_r19_network.node[6].content_store 	decision_no[6] 	26476
scalar tree_4_3_u01_r19_network.node[6].content_store 	decision_ratio[6] 	0.014699862305087
scalar tree_4_3_u01_r19_network.node[7].core_layer 	interests[7] 	27589
scalar tree_4_3_u01_r19_network.node[7].core_layer 	data[7] 	25420
scalar tree_4_3_u01_r19_network.node[7].content_store 	p_hit[7] 	0.078618289898148
scalar tree_4_3_u01_r19_network.node[7].content_store 	hits[7] 	2169
scalar tree_4_3_u01_r19_network.node[7].content_store 	misses[7] 	25420
scalar tree_4_3_u01_r19_network.node[7].content_store 	decision_yes[7] 	299
scalar tree_4_3_u01_r19_network.node[7].content_store 	decision_no[7] 	25121
scalar tree_4_3_u01_r19_network.node[7].content_store 	decision_ratio[7] 	0.011762391817467
scalar tree_4_3_u01_r19_network.node[8].core_layer 	interests[8] 	27788
scalar tree_4_3_u01_r19_network.node[8].core_layer 	data[8] 	25580
scalar tree_4_3_u01_r19_network.node[8].content_store 	p_hit[8] 	0.079458759176623
scalar tree_4_3_u01_r19_network.node[8].content_store 	hits[8] 	2208
scalar tree_4_3_u01_r19_network.node[8].content_store 	misses[8] 	25580
scalar tree_4_3_u01_r19_network.node[8].content_store 	decision_yes[8] 	305
scalar tree_4_3_u01_r19_network.node[8].content_store 	decision_no[8] 	25275
scalar tree_4_3_u01_r19_network.node[8].content_store 	decision_ratio[8] 	0.01192337763878
scalar tree_4_3_u01_r19_network.node[9].core_layer 	interests[9] 	27621
scalar tree_4_3_u01_r19_network.node[9].core_layer 	data[9] 	25473
scalar tree_4_3_u01_r19_network.node[9].content_store 	p_hit[9] 	0.077766916476594
scalar tree_4_3_u01_r19_network.node[9].content_store 	hits[9] 	2148
scalar tree_4_3_u01_r19_network.node[9].content_store 	misses[9] 	25473
scalar tree_4_3_u01_r19_network.node[9].content_store 	decision_yes[9] 	333
scalar tree_4_3_u01_r19_network.node[9].content_store 	decision_no[9] 	25140
scalar tree_4_3_u01_r19_network.node[9].content_store 	decision_ratio[9] 	0.013072665174891
scalar tree_4_3_u01_r19_network.node[10].core_layer 	interests[10] 	28104
scalar tree_4_3_u01_r19_network.node[10].core_layer 	data[10] 	25713
scalar tree_4_3_u01_r19_network.node[10].content_store 	p_hit[10] 	0.085076857386849
scalar tree_4_3_u01_r19_network.node[10].content_store 	hits[10] 	2391
scalar tree_4_3_u01_r19_network.node[10].content_store 	misses[10] 	25713
scalar tree_4_3_u01_r19_network.node[10].content_store 	decision_yes[10] 	304
scalar tree_4_3_u01_r19_network.node[10].content_store 	decision_no[10] 	25409
scalar tree_4_3_u01_r19_network.node[10].content_store 	decision_ratio[10] 	0.01182281336289
scalar tree_4_3_u01_r19_network.node[11].core_layer 	interests[11] 	27919
scalar tree_4_3_u01_r19_network.node[11].core_layer 	data[11] 	25673
scalar tree_4_3_u01_r19_network.node[11].content_store 	p_hit[11] 	0.080447007414306
scalar tree_4_3_u01_r19_network.node[11].content_store 	hits[11] 	2246
scalar tree_4_3_u01_r19_network.node[11].content_store 	misses[11] 	25673
scalar tree_4_3_u01_r19_network.node[11].content_store 	decision_yes[11] 	304
scalar tree_4_3_u01_r19_network.node[11].content_store 	decision_no[11] 	25368
scalar tree_4_3_u01_r19_network.node[11].content_store 	decision_ratio[11] 	0.01184169523216
scalar tree_4_3_u01_r19_network.node[12].core_layer 	interests[12] 	27988
scalar tree_4_3_u01_r19_network.node[12].core_layer 	data[12] 	25504
scalar tree_4_3_u01_r19_network.node[12].content_store 	p_hit[12] 	0.088752322423896
scalar tree_4_3_u01_r19_network.node[12].content_store 	hits[12] 	2484
scalar tree_4_3_u01_r19_network.node[12].content_store 	misses[12] 	25504
scalar tree_4_3_u01_r19_network.node[12].content_store 	decision_yes[12] 	293
scalar tree_4_3_u01_r19_network.node[12].content_store 	decision_no[12] 	25211
scalar tree_4_3_u01_r19_network.node[12].content_store 	decision_ratio[12] 	0.011488393977415
scalar tree_4_3_u01_r19_network.node[13].core_layer 	interests[13] 	12354
scalar tree_4_3_u01_r19_network.node[13].core_layer 	data[13] 	8785
scalar tree_4_3_u01_r19_network.node[13].content_store 	p_hit[13] 	0.28889428525174
scalar tree_4_3_u01_r19_network.node[13].content_store 	hits[13] 	3569
scalar tree_4_3_u01_r19_network.node[13].content_store 	misses[13] 	8785
scalar tree_4_3_u01_r19_network.node[13].content_store 	decision_yes[13] 	114
scalar tree_4_3_u01_r19_network.node[13].content_store 	decision_no[13] 	8671
scalar tree_4_3_u01_r19_network.node[13].content_store 	decision_ratio[13] 	0.012976664769493
scalar tree_4_3_u01_r19_network.node[14].core_layer 	interests[14] 	12872
scalar tree_4_3_u01_r19_network.node[14].core_layer 	data[14] 	8870
scalar tree_4_3_u01_r19_network.node[14].content_store 	p_hit[14] 	0.31090739589807
scalar tree_4_3_u01_r19_network.node[14].content_store 	hits[14] 	4002
scalar tree_4_3_u01_r19_network.node[14].content_store 	misses[14] 	8870
scalar tree_4_3_u01_r19_network.node[14].content_store 	decision_yes[14] 	107
scalar tree_4_3_u01_r19_network.node[14].content_store 	decision_no[14] 	8763
scalar tree_4_3_u01_r19_network.node[14].content_store 	decision_ratio[14] 	0.01206313416009
scalar tree_4_3_u01_r19_network.node[15].core_layer 	interests[15] 	12459
scalar tree_4_3_u01_r19_network.node[15].core_layer 	data[15] 	8777
scalar tree_4_3_u01_r19_network.node[15].content_store 	p_hit[15] 	0.29544907295931
scalar tree_4_3_u01_r19_network.node[15].content_store 	hits[15] 	3681
scalar tree_4_3_u01_r19_network.node[15].content_store 	misses[15] 	8778
scalar tree_4_3_u01_r19_network.node[15].content_store 	decision_yes[15] 	110
scalar tree_4_3_u01_r19_network.node[15].content_store 	decision_no[15] 	8667
scalar tree_4_3_u01_r19_network.node[15].content_store 	decision_ratio[15] 	0.012532756066993
scalar tree_4_3_u01_r19_network.node[16].core_layer 	interests[16] 	12526
scalar tree_4_3_u01_r19_network.node[16].core_layer 	data[16] 	8874
scalar tree_4_3_u01_r19_network.node[16].content_store 	p_hit[16] 	0.29155356857736
scalar tree_4_3_u01_r19_network.node[16].content_store 	hits[16] 	3652
scalar tree_4_3_u01_r19_network.node[16].content_store 	misses[16] 	8874
scalar tree_4_3_u01_r19_network.node[16].content_store 	decision_yes[16] 	104
scalar tree_4_3_u01_r19_network.node[16].content_store 	decision_no[16] 	8770
scalar tree_4_3_u01_r19_network.node[16].content_store 	decision_ratio[16] 	0.011719630380888
scalar tree_4_3_u01_r19_network.node[17].core_layer 	interests[17] 	12273
scalar tree_4_3_u01_r19_network.node[17].core_layer 	data[17] 	8597
scalar tree_4_3_u01_r19_network.node[17].content_store 	p_hit[17] 	0.29951926994215
scalar tree_4_3_u01_r19_network.node[17].content_store 	hits[17] 	3676
scalar tree_4_3_u01_r19_network.node[17].content_store 	misses[17] 	8597
scalar tree_4_3_u01_r19_network.node[17].content_store 	decision_yes[17] 	96
scalar tree_4_3_u01_r19_network.node[17].content_store 	decision_no[17] 	8501
scalar tree_4_3_u01_r19_network.node[17].content_store 	decision_ratio[17] 	0.011166686053274
scalar tree_4_3_u01_r19_network.node[18].core_layer 	interests[18] 	13188
scalar tree_4_3_u01_r19_network.node[18].core_layer 	data[18] 	8843
scalar tree_4_3_u01_r19_network.node[18].content_store 	p_hit[18] 	0.32946618137701
scalar tree_4_3_u01_r19_network.node[18].content_store 	hits[18] 	4345
scalar tree_4_3_u01_r19_network.node[18].content_store 	misses[18] 	8843
scalar tree_4_3_u01_r19_network.node[18].content_store 	decision_yes[18] 	114
scalar tree_4_3_u01_r19_network.node[18].content_store 	decision_no[18] 	8729
scalar tree_4_3_u01_r19_network.node[18].content_store 	decision_ratio[18] 	0.012891552640507
scalar tree_4_3_u01_r19_network.node[19].core_layer 	interests[19] 	12700
scalar tree_4_3_u01_r19_network.node[19].core_layer 	data[19] 	8833
scalar tree_4_3_u01_r19_network.node[19].content_store 	p_hit[19] 	0.30448818897638
scalar tree_4_3_u01_r19_network.node[19].content_store 	hits[19] 	3867
scalar tree_4_3_u01_r19_network.node[19].content_store 	misses[19] 	8833
scalar tree_4_3_u01_r19_network.node[19].content_store 	decision_yes[19] 	82
scalar tree_4_3_u01_r19_network.node[19].content_store 	decision_no[19] 	8751
scalar tree_4_3_u01_r19_network.node[19].content_store 	decision_ratio[19] 	0.0092833691837428
scalar tree_4_3_u01_r19_network.node[20].core_layer 	interests[20] 	12611
scalar tree_4_3_u01_r19_network.node[20].core_layer 	data[20] 	8819
scalar tree_4_3_u01_r19_network.node[20].content_store 	p_hit[20] 	0.30068987391959
scalar tree_4_3_u01_r19_network.node[20].content_store 	hits[20] 	3792
scalar tree_4_3_u01_r19_network.node[20].content_store 	misses[20] 	8819
scalar tree_4_3_u01_r19_network.node[20].content_store 	decision_yes[20] 	120
scalar tree_4_3_u01_r19_network.node[20].content_store 	decision_no[20] 	8699
scalar tree_4_3_u01_r19_network.node[20].content_store 	decision_ratio[20] 	0.013606984918925
scalar tree_4_3_u01_r19_network.node[21].core_layer 	interests[21] 	12485
scalar tree_4_3_u01_r19_network.node[21].core_layer 	data[21] 	8602
scalar tree_4_3_u01_r19_network.node[21].content_store 	p_hit[21] 	0.31101321585903
scalar tree_4_3_u01_r19_network.node[21].content_store 	hits[21] 	3883
scalar tree_4_3_u01_r19_network.node[21].content_store 	misses[21] 	8602
scalar tree_4_3_u01_r19_network.node[21].content_store 	decision_yes[21] 	100
scalar tree_4_3_u01_r19_network.node[21].content_store 	decision_no[21] 	8502
scalar tree_4_3_u01_r19_network.node[21].content_store 	decision_ratio[21] 	0.01162520344106
scalar tree_4_3_u01_r19_network.node[22].core_layer 	interests[22] 	12480
scalar tree_4_3_u01_r19_network.node[22].core_layer 	data[22] 	8709
scalar tree_4_3_u01_r19_network.node[22].content_store 	p_hit[22] 	0.30208333333333
scalar tree_4_3_u01_r19_network.node[22].content_store 	hits[22] 	3770
scalar tree_4_3_u01_r19_network.node[22].content_store 	misses[22] 	8710
scalar tree_4_3_u01_r19_network.node[22].content_store 	decision_yes[22] 	107
scalar tree_4_3_u01_r19_network.node[22].content_store 	decision_no[22] 	8602
scalar tree_4_3_u01_r19_network.node[22].content_store 	decision_ratio[22] 	0.012286140773912
scalar tree_4_3_u01_r19_network.node[23].core_layer 	interests[23] 	12502
scalar tree_4_3_u01_r19_network.node[23].core_layer 	data[23] 	8783
scalar tree_4_3_u01_r19_network.node[23].content_store 	p_hit[23] 	0.29747240441529
scalar tree_4_3_u01_r19_network.node[23].content_store 	hits[23] 	3719
scalar tree_4_3_u01_r19_network.node[23].content_store 	misses[23] 	8783
scalar tree_4_3_u01_r19_network.node[23].content_store 	decision_yes[23] 	108
scalar tree_4_3_u01_r19_network.node[23].content_store 	decision_no[23] 	8675
scalar tree_4_3_u01_r19_network.node[23].content_store 	decision_ratio[23] 	0.012296481839918
scalar tree_4_3_u01_r19_network.node[24].core_layer 	interests[24] 	12409
scalar tree_4_3_u01_r19_network.node[24].core_layer 	data[24] 	8708
scalar tree_4_3_u01_r19_network.node[24].content_store 	p_hit[24] 	0.29825126924007
scalar tree_4_3_u01_r19_network.node[24].content_store 	hits[24] 	3701
scalar tree_4_3_u01_r19_network.node[24].content_store 	misses[24] 	8708
scalar tree_4_3_u01_r19_network.node[24].content_store 	decision_yes[24] 	110
scalar tree_4_3_u01_r19_network.node[24].content_store 	decision_no[24] 	8598
scalar tree_4_3_u01_r19_network.node[24].content_store 	decision_ratio[24] 	0.012632062471291
scalar tree_4_3_u01_r19_network.node[25].core_layer 	interests[25] 	12458
scalar tree_4_3_u01_r19_network.node[25].core_layer 	data[25] 	8639
scalar tree_4_3_u01_r19_network.node[25].content_store 	p_hit[25] 	0.30655000802697
scalar tree_4_3_u01_r19_network.node[25].content_store 	hits[25] 	3819
scalar tree_4_3_u01_r19_network.node[25].content_store 	misses[25] 	8639
scalar tree_4_3_u01_r19_network.node[25].content_store 	decision_yes[25] 	90
scalar tree_4_3_u01_r19_network.node[25].content_store 	decision_no[25] 	8549
scalar tree_4_3_u01_r19_network.node[25].content_store 	decision_ratio[25] 	0.01041787243894
scalar tree_4_3_u01_r19_network.node[26].core_layer 	interests[26] 	12749
scalar tree_4_3_u01_r19_network.node[26].core_layer 	data[26] 	8958
scalar tree_4_3_u01_r19_network.node[26].content_store 	p_hit[26] 	0.29735665542395
scalar tree_4_3_u01_r19_network.node[26].content_store 	hits[26] 	3791
scalar tree_4_3_u01_r19_network.node[26].content_store 	misses[26] 	8958
scalar tree_4_3_u01_r19_network.node[26].content_store 	decision_yes[26] 	119
scalar tree_4_3_u01_r19_network.node[26].content_store 	decision_no[26] 	8839
scalar tree_4_3_u01_r19_network.node[26].content_store 	decision_ratio[26] 	0.013284215226613
scalar tree_4_3_u01_r19_network.node[27].core_layer 	interests[27] 	12538
scalar tree_4_3_u01_r19_network.node[27].core_layer 	data[27] 	8846
scalar tree_4_3_u01_r19_network.node[27].content_store 	p_hit[27] 	0.29446482692614
scalar tree_4_3_u01_r19_network.node[27].content_store 	hits[27] 	3692
scalar tree_4_3_u01_r19_network.node[27].content_store 	misses[27] 	8846
scalar tree_4_3_u01_r19_network.node[27].content_store 	decision_yes[27] 	135
scalar tree_4_3_u01_r19_network.node[27].content_store 	decision_no[27] 	8711
scalar tree_4_3_u01_r19_network.node[27].content_store 	decision_ratio[27] 	0.01526113497626
scalar tree_4_3_u01_r19_network.node[28].core_layer 	interests[28] 	12550
scalar tree_4_3_u01_r19_network.node[28].core_layer 	data[28] 	8723
scalar tree_4_3_u01_r19_network.node[28].content_store 	p_hit[28] 	0.30486055776892
scalar tree_4_3_u01_r19_network.node[28].content_store 	hits[28] 	3826
scalar tree_4_3_u01_r19_network.node[28].content_store 	misses[28] 	8724
scalar tree_4_3_u01_r19_network.node[28].content_store 	decision_yes[28] 	107
scalar tree_4_3_u01_r19_network.node[28].content_store 	decision_no[28] 	8616
scalar tree_4_3_u01_r19_network.node[28].content_store 	decision_ratio[28] 	0.012266422102488
scalar tree_4_3_u01_r19_network.node[29].core_layer 	interests[29] 	12516
scalar tree_4_3_u01_r19_network.node[29].core_layer 	data[29] 	8838
scalar tree_4_3_u01_r19_network.node[29].content_store 	p_hit[29] 	0.29386385426654
scalar tree_4_3_u01_r19_network.node[29].content_store 	hits[29] 	3678
scalar tree_4_3_u01_r19_network.node[29].content_store 	misses[29] 	8838
scalar tree_4_3_u01_r19_network.node[29].content_store 	decision_yes[29] 	96
scalar tree_4_3_u01_r19_network.node[29].content_store 	decision_no[29] 	8742
scalar tree_4_3_u01_r19_network.node[29].content_store 	decision_ratio[29] 	0.010862186014936
scalar tree_4_3_u01_r19_network.node[30].core_layer 	interests[30] 	12383
scalar tree_4_3_u01_r19_network.node[30].core_layer 	data[30] 	8705
scalar tree_4_3_u01_r19_network.node[30].content_store 	p_hit[30] 	0.29710086408786
scalar tree_4_3_u01_r19_network.node[30].content_store 	hits[30] 	3679
scalar tree_4_3_u01_r19_network.node[30].content_store 	misses[30] 	8704
scalar tree_4_3_u01_r19_network.node[30].content_store 	decision_yes[30] 	126
scalar tree_4_3_u01_r19_network.node[30].content_store 	decision_no[30] 	8579
scalar tree_4_3_u01_r19_network.node[30].content_store 	decision_ratio[30] 	0.014474439977025
scalar tree_4_3_u01_r19_network.node[31].core_layer 	interests[31] 	12298
scalar tree_4_3_u01_r19_network.node[31].core_layer 	data[31] 	8649
scalar tree_4_3_u01_r19_network.node[31].content_store 	p_hit[31] 	0.29663359895918
scalar tree_4_3_u01_r19_network.node[31].content_store 	hits[31] 	3648
scalar tree_4_3_u01_r19_network.node[31].content_store 	misses[31] 	8650
scalar tree_4_3_u01_r19_network.node[31].content_store 	decision_yes[31] 	93
scalar tree_4_3_u01_r19_network.node[31].content_store 	decision_no[31] 	8556
scalar tree_4_3_u01_r19_network.node[31].content_store 	decision_ratio[31] 	0.010752688172043
scalar tree_4_3_u01_r19_network.node[32].core_layer 	interests[32] 	12641
scalar tree_4_3_u01_r19_network.node[32].core_layer 	data[32] 	8980
scalar tree_4_3_u01_r19_network.node[32].content_store 	p_hit[32] 	0.28961316351554
scalar tree_4_3_u01_r19_network.node[32].content_store 	hits[32] 	3661
scalar tree_4_3_u01_r19_network.node[32].content_store 	misses[32] 	8980
scalar tree_4_3_u01_r19_network.node[32].content_store 	decision_yes[32] 	126
scalar tree_4_3_u01_r19_network.node[32].content_store 	decision_no[32] 	8854
scalar tree_4_3_u01_r19_network.node[32].content_store 	decision_ratio[32] 	0.014031180400891
scalar tree_4_3_u01_r19_network.node[33].core_layer 	interests[33] 	12796
scalar tree_4_3_u01_r19_network.node[33].core_layer 	data[33] 	8955
scalar tree_4_3_u01_r19_network.node[33].content_store 	p_hit[33] 	0.30017192872773
scalar tree_4_3_u01_r19_network.node[33].content_store 	hits[33] 	3841
scalar tree_4_3_u01_r19_network.node[33].content_store 	misses[33] 	8955
scalar tree_4_3_u01_r19_network.node[33].content_store 	decision_yes[33] 	115
scalar tree_4_3_u01_r19_network.node[33].content_store 	decision_no[33] 	8840
scalar tree_4_3_u01_r19_network.node[33].content_store 	decision_ratio[33] 	0.01284198771636
scalar tree_4_3_u01_r19_network.node[34].core_layer 	interests[34] 	12359
scalar tree_4_3_u01_r19_network.node[34].core_layer 	data[34] 	8694
scalar tree_4_3_u01_r19_network.node[34].content_store 	p_hit[34] 	0.29654502791488
scalar tree_4_3_u01_r19_network.node[34].content_store 	hits[34] 	3665
scalar tree_4_3_u01_r19_network.node[34].content_store 	misses[34] 	8694
scalar tree_4_3_u01_r19_network.node[34].content_store 	decision_yes[34] 	108
scalar tree_4_3_u01_r19_network.node[34].content_store 	decision_no[34] 	8586
scalar tree_4_3_u01_r19_network.node[34].content_store 	decision_ratio[34] 	0.012422360248447
scalar tree_4_3_u01_r19_network.node[35].core_layer 	interests[35] 	12517
scalar tree_4_3_u01_r19_network.node[35].core_layer 	data[35] 	8714
scalar tree_4_3_u01_r19_network.node[35].content_store 	p_hit[35] 	0.30374690421027
scalar tree_4_3_u01_r19_network.node[35].content_store 	hits[35] 	3802
scalar tree_4_3_u01_r19_network.node[35].content_store 	misses[35] 	8715
scalar tree_4_3_u01_r19_network.node[35].content_store 	decision_yes[35] 	98
scalar tree_4_3_u01_r19_network.node[35].content_store 	decision_no[35] 	8616
scalar tree_4_3_u01_r19_network.node[35].content_store 	decision_ratio[35] 	0.01124627036952
scalar tree_4_3_u01_r19_network.node[36].core_layer 	interests[36] 	12601
scalar tree_4_3_u01_r19_network.node[36].core_layer 	data[36] 	8887
scalar tree_4_3_u01_r19_network.node[36].content_store 	p_hit[36] 	0.29473851281644
scalar tree_4_3_u01_r19_network.node[36].content_store 	hits[36] 	3714
scalar tree_4_3_u01_r19_network.node[36].content_store 	misses[36] 	8887
scalar tree_4_3_u01_r19_network.node[36].content_store 	decision_yes[36] 	139
scalar tree_4_3_u01_r19_network.node[36].content_store 	decision_no[36] 	8748
scalar tree_4_3_u01_r19_network.node[36].content_store 	decision_ratio[36] 	0.015640823675031
scalar tree_4_3_u01_r19_network.node[37].core_layer 	interests[37] 	12691
scalar tree_4_3_u01_r19_network.node[37].core_layer 	data[37] 	8819
scalar tree_4_3_u01_r19_network.node[37].content_store 	p_hit[37] 	0.30509810101647
scalar tree_4_3_u01_r19_network.node[37].content_store 	hits[37] 	3872
scalar tree_4_3_u01_r19_network.node[37].content_store 	misses[37] 	8819
scalar tree_4_3_u01_r19_network.node[37].content_store 	decision_yes[37] 	91
scalar tree_4_3_u01_r19_network.node[37].content_store 	decision_no[37] 	8728
scalar tree_4_3_u01_r19_network.node[37].content_store 	decision_ratio[37] 	0.010318630230185
scalar tree_4_3_u01_r19_network.node[38].core_layer 	interests[38] 	12378
scalar tree_4_3_u01_r19_network.node[38].core_layer 	data[38] 	8782
scalar tree_4_3_u01_r19_network.node[38].content_store 	p_hit[38] 	0.29051543060268
scalar tree_4_3_u01_r19_network.node[38].content_store 	hits[38] 	3596
scalar tree_4_3_u01_r19_network.node[38].content_store 	misses[38] 	8782
scalar tree_4_3_u01_r19_network.node[38].content_store 	decision_yes[38] 	110
scalar tree_4_3_u01_r19_network.node[38].content_store 	decision_no[38] 	8672
scalar tree_4_3_u01_r19_network.node[38].content_store 	decision_ratio[38] 	0.012525620587565
scalar tree_4_3_u01_r19_network.node[39].core_layer 	interests[39] 	12443
scalar tree_4_3_u01_r19_network.node[39].core_layer 	data[39] 	8764
scalar tree_4_3_u01_r19_network.node[39].content_store 	p_hit[39] 	0.29566824720727
scalar tree_4_3_u01_r19_network.node[39].content_store 	hits[39] 	3679
scalar tree_4_3_u01_r19_network.node[39].content_store 	misses[39] 	8764
scalar tree_4_3_u01_r19_network.node[39].content_store 	decision_yes[39] 	116
scalar tree_4_3_u01_r19_network.node[39].content_store 	decision_no[39] 	8648
scalar tree_4_3_u01_r19_network.node[39].content_store 	decision_ratio[39] 	0.013235965312643
scalar tree_4_3_u01_r19_network.client[13] 	hdistance[13] 	2.6941695084421
scalar tree_4_3_u01_r19_network.client[13] 	downloads[13] 	12023
scalar tree_4_3_u01_r19_network.client[13] 	avg_time[13] 	0.00419412489
scalar tree_4_3_u01_r19_network.client[14] 	hdistance[14] 	2.6385101429997
scalar tree_4_3_u01_r19_network.client[14] 	downloads[14] 	12028
scalar tree_4_3_u01_r19_network.client[14] 	avg_time[14] 	0.004077996251
scalar tree_4_3_u01_r19_network.client[15] 	hdistance[15] 	2.6633892423366
scalar tree_4_3_u01_r19_network.client[15] 	downloads[15] 	12103
scalar tree_4_3_u01_r19_network.client[15] 	avg_time[15] 	0.004145269546
scalar tree_4_3_u01_r19_network.client[16] 	hdistance[16] 	2.678421701603
scalar tree_4_3_u01_r19_network.client[16] 	downloads[16] 	12165
scalar tree_4_3_u01_r19_network.client[16] 	avg_time[16] 	0.004158320039
scalar tree_4_3_u01_r19_network.client[17] 	hdistance[17] 	2.654537815126
scalar tree_4_3_u01_r19_network.client[17] 	downloads[17] 	11900
scalar tree_4_3_u01_r19_network.client[17] 	avg_time[17] 	0.004116131506
scalar tree_4_3_u01_r19_network.client[18] 	hdistance[18] 	2.5961570454167
scalar tree_4_3_u01_r19_network.client[18] 	downloads[18] 	12022
scalar tree_4_3_u01_r19_network.client[18] 	avg_time[18] 	0.004051327108
scalar tree_4_3_u01_r19_network.client[19] 	hdistance[19] 	2.6731686898284
scalar tree_4_3_u01_r19_network.client[19] 	downloads[19] 	11945
scalar tree_4_3_u01_r19_network.client[19] 	avg_time[19] 	0.004188120521
scalar tree_4_3_u01_r19_network.client[20] 	hdistance[20] 	2.6610693400167
scalar tree_4_3_u01_r19_network.client[20] 	downloads[20] 	11970
scalar tree_4_3_u01_r19_network.client[20] 	avg_time[20] 	0.004168585131
scalar tree_4_3_u01_r19_network.client[21] 	hdistance[21] 	2.6240094419154
scalar tree_4_3_u01_r19_network.client[21] 	downloads[21] 	11862
scalar tree_4_3_u01_r19_network.client[21] 	avg_time[21] 	0.004105038355
scalar tree_4_3_u01_r19_network.client[22] 	hdistance[22] 	2.6778991596639
scalar tree_4_3_u01_r19_network.client[22] 	downloads[22] 	11900
scalar tree_4_3_u01_r19_network.client[22] 	avg_time[22] 	0.004162686091
scalar tree_4_3_u01_r19_network.client[23] 	hdistance[23] 	2.7008282439555
scalar tree_4_3_u01_r19_network.client[23] 	downloads[23] 	11953
scalar tree_4_3_u01_r19_network.client[23] 	avg_time[23] 	0.004188568889
scalar tree_4_3_u01_r19_network.client[24] 	hdistance[24] 	2.6877729257642
scalar tree_4_3_u01_r19_network.client[24] 	downloads[24] 	11908
scalar tree_4_3_u01_r19_network.client[24] 	avg_time[24] 	0.004174501528
scalar tree_4_3_u01_r19_network.client[25] 	hdistance[25] 	2.6734249329759
scalar tree_4_3_u01_r19_network.client[25] 	downloads[25] 	11936
scalar tree_4_3_u01_r19_network.client[25] 	avg_time[25] 	0.004144098886
scalar tree_4_3_u01_r19_network.client[26] 	hdistance[26] 	2.6855016763431
scalar tree_4_3_u01_r19_network.client[26] 	downloads[26] 	12229
scalar tree_4_3_u01_r19_network.client[26] 	avg_time[26] 	0.004172537636
scalar tree_4_3_u01_r19_network.client[27] 	hdistance[27] 	2.6916548797737
scalar tree_4_3_u01_r19_network.client[27] 	downloads[27] 	12019
scalar tree_4_3_u01_r19_network.client[27] 	avg_time[27] 	0.0041875334
scalar tree_4_3_u01_r19_network.client[28] 	hdistance[28] 	2.6704017264276
scalar tree_4_3_u01_r19_network.client[28] 	downloads[28] 	12048
scalar tree_4_3_u01_r19_network.client[28] 	avg_time[28] 	0.004145581341
scalar tree_4_3_u01_r19_network.client[29] 	hdistance[29] 	2.7086660013307
scalar tree_4_3_u01_r19_network.client[29] 	downloads[29] 	12024
scalar tree_4_3_u01_r19_network.client[29] 	avg_time[29] 	0.004210076846
scalar tree_4_3_u01_r19_network.client[30] 	hdistance[30] 	2.68853974122
scalar tree_4_3_u01_r19_network.client[30] 	downloads[30] 	11902
scalar tree_4_3_u01_r19_network.client[30] 	avg_time[30] 	0.004181479134
scalar tree_4_3_u01_r19_network.client[31] 	hdistance[31] 	2.6837606837607
scalar tree_4_3_u01_r19_network.client[31] 	downloads[31] 	11817
scalar tree_4_3_u01_r19_network.client[31] 	avg_time[31] 	0.004193616431
scalar tree_4_3_u01_r19_network.client[32] 	hdistance[32] 	2.7004779169413
scalar tree_4_3_u01_r19_network.client[32] 	downloads[32] 	12136
scalar tree_4_3_u01_r19_network.client[32] 	avg_time[32] 	0.004222475561
scalar tree_4_3_u01_r19_network.client[33] 	hdistance[33] 	2.6651975187724
scalar tree_4_3_u01_r19_network.client[33] 	downloads[33] 	12252
scalar tree_4_3_u01_r19_network.client[33] 	avg_time[33] 	0.004167969511
scalar tree_4_3_u01_r19_network.client[34] 	hdistance[34] 	2.69611247565
scalar tree_4_3_u01_r19_network.client[34] 	downloads[34] 	11807
scalar tree_4_3_u01_r19_network.client[34] 	avg_time[34] 	0.004214107328
scalar tree_4_3_u01_r19_network.client[35] 	hdistance[35] 	2.6887156270959
scalar tree_4_3_u01_r19_network.client[35] 	downloads[35] 	11928
scalar tree_4_3_u01_r19_network.client[35] 	avg_time[35] 	0.00419621841
scalar tree_4_3_u01_r19_network.client[36] 	hdistance[36] 	2.6992018623213
scalar tree_4_3_u01_r19_network.client[36] 	downloads[36] 	12028
scalar tree_4_3_u01_r19_network.client[36] 	avg_time[36] 	0.004227466205
scalar tree_4_3_u01_r19_network.client[37] 	hdistance[37] 	2.6519414281014
scalar tree_4_3_u01_r19_network.client[37] 	downloads[37] 	12156
scalar tree_4_3_u01_r19_network.client[37] 	avg_time[37] 	0.004137871252
scalar tree_4_3_u01_r19_network.client[38] 	hdistance[38] 	2.7006956667505
scalar tree_4_3_u01_r19_network.client[38] 	downloads[38] 	11931
scalar tree_4_3_u01_r19_network.client[38] 	avg_time[38] 	0.00421724621
scalar tree_4_3_u01_r19_network.client[39] 	hdistance[39] 	2.6753746964749
scalar tree_4_3_u01_r19_network.client[39] 	downloads[39] 	11943
scalar tree_4_3_u01_r19_network.client[39] 	avg_time[39] 	0.004184540267
