version 2
run General-16-20160822-14:11:47-32430
attr D fix0.005
attr F nrr
attr R lru
attr a 0.7
attr configname General
attr datetime 20160822-14:11:47
attr experiment General
attr inifile hw5115/scenario_B/bus.ini
attr iterationvars "$net=bus, $rep=0, $a=0.7, $F=nrr, $D=fix0.005, $R=lru, $window=60, $variance=0.05, $mytime=600"
attr iterationvars2 "$net=bus, $rep=0, $a=0.7, $F=nrr, $D=fix0.005, $R=lru, $window=60, $variance=0.05, $mytime=600, $repetition=0"
attr measurement "$net=bus, $rep=0, $a=0.7, $F=nrr, $D=fix0.005, $R=lru, $window=60, $variance=0.05, $mytime=600"
attr mytime 600
attr net bus
attr network networks.${net=bus}_network
attr processid 32430
attr rep 0
attr repetition 0
attr replication #0
attr resultdir results
attr runnumber 16
attr seedset 0
attr variance 0.05
attr window 60

scalar . 	a 	0.7
scalar . 	mytime 	600
scalar . 	rep 	0
scalar . 	variance 	0.05
scalar . 	window 	60
scalar bus_network.content_distribution 	repo-0 	9
scalar bus_network.content_distribution 	client-0 	5
scalar bus_network.content_distribution 	client-1 	8
scalar bus_network.content_distribution 	client-2 	9
scalar bus_network.content_distribution 	client-3 	0
scalar bus_network.content_distribution 	client-4 	1
scalar bus_network.content_distribution 	client-5 	7
scalar bus_network.content_distribution 	client-6 	6
scalar bus_network.content_distribution 	client-7 	2
scalar bus_network.content_distribution 	client-8 	4
scalar bus_network.content_distribution 	client-9 	3
scalar bus_network.content_distribution 	repo-0_card 	100000
scalar bus_network.content_distribution 	repo-0_price 	0
scalar bus_network.statistics 	stabilization_time 	1664.8
scalar bus_network.statistics 	p_hit 	0.035593011279977
scalar bus_network.statistics 	interests 	59740.8
scalar bus_network.statistics 	data 	47788.7
scalar bus_network.statistics 	hdistance 	4.8824638632702
scalar bus_network.statistics 	avg_time 	0.008033737584
scalar bus_network.statistics 	downloads 	119517
scalar bus_network.statistics 	total_cost 	0
scalar bus_network.statistics 	total_replicas 	100000
scalar bus_network.statistics 	inner_hit 	0.13420684923484
scalar bus_network.node[0].core_layer 	interests[0] 	12072
scalar bus_network.node[0].core_layer 	data[0] 	11395
scalar bus_network.node[0].core_layer 	repo_int[0] 	103477
scalar bus_network.node[0].content_store 	p_hit[0] 	0.055997349237906
scalar bus_network.node[0].content_store 	hits[0] 	676
scalar bus_network.node[0].content_store 	misses[0] 	11396
scalar bus_network.node[0].content_store 	decision_yes[0] 	58
scalar bus_network.node[0].content_store 	decision_no[0] 	11337
scalar bus_network.node[0].content_store 	decision_ratio[0] 	0.0050899517332163
scalar bus_network.node[1].core_layer 	interests[1] 	24151
scalar bus_network.node[1].core_layer 	data[1] 	22464
scalar bus_network.node[1].content_store 	p_hit[1] 	0.069810773880999
scalar bus_network.node[1].content_store 	hits[1] 	1686
scalar bus_network.node[1].content_store 	misses[1] 	22465
scalar bus_network.node[1].content_store 	decision_yes[1] 	110
scalar bus_network.node[1].content_store 	decision_no[1] 	22354
scalar bus_network.node[1].content_store 	decision_ratio[1] 	0.0048967236467236
scalar bus_network.node[2].core_layer 	interests[2] 	35009
scalar bus_network.node[2].core_layer 	data[2] 	33197
scalar bus_network.node[2].content_store 	p_hit[2] 	0.051700991173698
scalar bus_network.node[2].content_store 	hits[2] 	1810
scalar bus_network.node[2].content_store 	misses[2] 	33199
scalar bus_network.node[2].content_store 	decision_yes[2] 	178
scalar bus_network.node[2].content_store 	decision_no[2] 	33019
scalar bus_network.node[2].content_store 	decision_ratio[2] 	0.0053619302949062
scalar bus_network.node[3].core_layer 	interests[3] 	45863
scalar bus_network.node[3].core_layer 	data[3] 	43784
scalar bus_network.node[3].content_store 	p_hit[3] 	0.045308854632274
scalar bus_network.node[3].content_store 	hits[3] 	2078
scalar bus_network.node[3].content_store 	misses[3] 	43785
scalar bus_network.node[3].content_store 	decision_yes[3] 	177
scalar bus_network.node[3].content_store 	decision_no[3] 	43607
scalar bus_network.node[3].content_store 	decision_ratio[3] 	0.004042572629271
scalar bus_network.node[4].core_layer 	interests[4] 	55999
scalar bus_network.node[4].core_layer 	data[4] 	53857
scalar bus_network.node[4].content_store 	p_hit[4] 	0.038232825586171
scalar bus_network.node[4].content_store 	hits[4] 	2141
scalar bus_network.node[4].content_store 	misses[4] 	53858
scalar bus_network.node[4].content_store 	decision_yes[4] 	311
scalar bus_network.node[4].content_store 	decision_no[4] 	53546
scalar bus_network.node[4].content_store 	decision_ratio[4] 	0.0057745511261303
scalar bus_network.node[5].core_layer 	interests[5] 	65571
scalar bus_network.node[5].core_layer 	data[5] 	63880
scalar bus_network.node[5].content_store 	p_hit[5] 	0.025788839578472
scalar bus_network.node[5].content_store 	hits[5] 	1691
scalar bus_network.node[5].content_store 	misses[5] 	63880
scalar bus_network.node[5].content_store 	decision_yes[5] 	308
scalar bus_network.node[5].content_store 	decision_no[5] 	63572
scalar bus_network.node[5].content_store 	decision_ratio[5] 	0.0048215403882279
scalar bus_network.node[6].core_layer 	interests[6] 	75288
scalar bus_network.node[6].core_layer 	data[6] 	73262
scalar bus_network.node[6].content_store 	p_hit[6] 	0.026909998937414
scalar bus_network.node[6].content_store 	hits[6] 	2026
scalar bus_network.node[6].content_store 	misses[6] 	73262
scalar bus_network.node[6].content_store 	decision_yes[6] 	345
scalar bus_network.node[6].content_store 	decision_no[6] 	72917
scalar bus_network.node[6].content_store 	decision_ratio[6] 	0.0047091261499823
scalar bus_network.node[7].core_layer 	interests[7] 	84534
scalar bus_network.node[7].core_layer 	data[7] 	83065
scalar bus_network.node[7].content_store 	p_hit[7] 	0.017377623204864
scalar bus_network.node[7].content_store 	hits[7] 	1469
scalar bus_network.node[7].content_store 	misses[7] 	83065
scalar bus_network.node[7].content_store 	decision_yes[7] 	430
scalar bus_network.node[7].content_store 	decision_no[7] 	82635
scalar bus_network.node[7].content_store 	decision_ratio[7] 	0.0051766688737736
scalar bus_network.node[8].core_layer 	interests[8] 	94194
scalar bus_network.node[8].core_layer 	data[8] 	92983
scalar bus_network.node[8].content_store 	p_hit[8] 	0.01286706159628
scalar bus_network.node[8].content_store 	hits[8] 	1212
scalar bus_network.node[8].content_store 	misses[8] 	92982
scalar bus_network.node[8].content_store 	decision_yes[8] 	446
scalar bus_network.node[8].content_store 	decision_no[8] 	92537
scalar bus_network.node[8].content_store 	decision_ratio[8] 	0.004796575718142
scalar bus_network.node[9].core_layer 	interests[9] 	104727
scalar bus_network.node[9].core_layer 	repo_load[9] 	103477
scalar bus_network.node[9].core_layer 	data[9] 	0
scalar bus_network.node[9].content_store 	p_hit[9] 	0.011935794971688
scalar bus_network.node[9].content_store 	hits[9] 	1250
scalar bus_network.node[9].content_store 	misses[9] 	103477
scalar bus_network.node[9].content_store 	decision_yes[9] 	534
scalar bus_network.node[9].content_store 	decision_no[9] 	102943
scalar bus_network.node[9].content_store 	decision_ratio[9] 	0.0051605670825401
scalar bus_network.client[0] 	hdistance[0] 	8.8715479031708
scalar bus_network.client[0] 	downloads[0] 	11732
scalar bus_network.client[0] 	avg_time[0] 	0.016055742056
scalar bus_network.client[1] 	hdistance[1] 	7.9297996661102
scalar bus_network.client[1] 	downloads[1] 	11980
scalar bus_network.client[1] 	avg_time[1] 	0.014163769955
scalar bus_network.client[2] 	hdistance[2] 	7.0268176400477
scalar bus_network.client[2] 	downloads[2] 	11746
scalar bus_network.client[2] 	avg_time[2] 	0.012357496448
scalar bus_network.client[3] 	hdistance[3] 	6.1015308233347
scalar bus_network.client[3] 	downloads[3] 	12085
scalar bus_network.client[3] 	avg_time[3] 	0.010522793817
scalar bus_network.client[4] 	hdistance[4] 	5.2466303892842
scalar bus_network.client[4] 	downloads[4] 	11945
scalar bus_network.client[4] 	avg_time[4] 	0.008814563795
scalar bus_network.client[5] 	hdistance[5] 	4.4521870539837
scalar bus_network.client[5] 	downloads[5] 	11911
scalar bus_network.client[5] 	avg_time[5] 	0.007210978474
scalar bus_network.client[6] 	hdistance[6] 	3.5944402452339
scalar bus_network.client[6] 	downloads[6] 	11907
scalar bus_network.client[6] 	avg_time[6] 	0.005492396466
scalar bus_network.client[7] 	hdistance[7] 	2.7633372112348
scalar bus_network.client[7] 	downloads[7] 	12034
scalar bus_network.client[7] 	avg_time[7] 	0.00377230876
scalar bus_network.client[8] 	hdistance[8] 	1.8790396278142
scalar bus_network.client[8] 	downloads[8] 	12037
scalar bus_network.client[8] 	avg_time[8] 	0.00194732607
scalar bus_network.client[9] 	hdistance[9] 	0.95930807248764
scalar bus_network.client[9] 	downloads[9] 	12140
scalar bus_network.client[9] 	avg_time[9] 	0
