version 2
run General-10-20160822-10:03:22-13100
attr D fix0.1
attr F nrr
attr R lru
attr a 0.5
attr configname General
attr datetime 20160822-10:03:22
attr experiment General
attr inifile hw5115/scenario_B/bus.ini
attr iterationvars "$net=bus, $rep=0, $a=0.5, $F=nrr, $D=fix0.1, $R=lru, $window=60, $variance=0.05, $mytime=600"
attr iterationvars2 "$net=bus, $rep=0, $a=0.5, $F=nrr, $D=fix0.1, $R=lru, $window=60, $variance=0.05, $mytime=600, $repetition=0"
attr measurement "$net=bus, $rep=0, $a=0.5, $F=nrr, $D=fix0.1, $R=lru, $window=60, $variance=0.05, $mytime=600"
attr mytime 600
attr net bus
attr network networks.${net=bus}_network
attr processid 13100
attr rep 0
attr repetition 0
attr replication #0
attr resultdir results
attr runnumber 10
attr seedset 0
attr variance 0.05
attr window 60

scalar . 	a 	0.5
scalar . 	mytime 	600
scalar . 	rep 	0
scalar . 	variance 	0.05
scalar . 	window 	60
scalar bus_network.content_distribution 	repo-0 	9
scalar bus_network.content_distribution 	client-0 	5
scalar bus_network.content_distribution 	client-1 	8
scalar bus_network.content_distribution 	client-2 	9
scalar bus_network.content_distribution 	client-3 	0
scalar bus_network.content_distribution 	client-4 	1
scalar bus_network.content_distribution 	client-5 	7
scalar bus_network.content_distribution 	client-6 	6
scalar bus_network.content_distribution 	client-7 	2
scalar bus_network.content_distribution 	client-8 	4
scalar bus_network.content_distribution 	client-9 	3
scalar bus_network.content_distribution 	repo-0_card 	100000
scalar bus_network.content_distribution 	repo-0_price 	0
scalar bus_network.statistics 	stabilization_time 	615.5
scalar bus_network.statistics 	p_hit 	0.0064230756136032
scalar bus_network.statistics 	interests 	65322.7
scalar bus_network.statistics 	data 	53331.4
scalar bus_network.statistics 	hdistance 	5.4170334506206
scalar bus_network.statistics 	avg_time 	0.008873492229
scalar bus_network.statistics 	downloads 	119908
scalar bus_network.statistics 	total_cost 	0
scalar bus_network.statistics 	total_replicas 	100000
scalar bus_network.statistics 	inner_hit 	0.019831871101178
scalar bus_network.node[0].core_layer 	interests[0] 	12387
scalar bus_network.node[0].core_layer 	data[0] 	12076
scalar bus_network.node[0].core_layer 	repo_int[0] 	117530
scalar bus_network.node[0].content_store 	p_hit[0] 	0.025106966981513
scalar bus_network.node[0].content_store 	hits[0] 	311
scalar bus_network.node[0].content_store 	misses[0] 	12076
scalar bus_network.node[0].content_store 	decision_yes[0] 	1168
scalar bus_network.node[0].content_store 	decision_no[0] 	10908
scalar bus_network.node[0].content_store 	decision_ratio[0] 	0.09672076846638
scalar bus_network.node[1].core_layer 	interests[1] 	24406
scalar bus_network.node[1].core_layer 	data[1] 	24138
scalar bus_network.node[1].content_store 	p_hit[1] 	0.010980906334508
scalar bus_network.node[1].content_store 	hits[1] 	268
scalar bus_network.node[1].content_store 	misses[1] 	24138
scalar bus_network.node[1].content_store 	decision_yes[1] 	2422
scalar bus_network.node[1].content_store 	decision_no[1] 	21716
scalar bus_network.node[1].content_store 	decision_ratio[1] 	0.1003397133151
scalar bus_network.node[2].core_layer 	interests[2] 	36275
scalar bus_network.node[2].core_layer 	data[2] 	35985
scalar bus_network.node[2].content_store 	p_hit[2] 	0.0079669193659545
scalar bus_network.node[2].content_store 	hits[2] 	289
scalar bus_network.node[2].content_store 	misses[2] 	35986
scalar bus_network.node[2].content_store 	decision_yes[2] 	3572
scalar bus_network.node[2].content_store 	decision_no[2] 	32413
scalar bus_network.node[2].content_store 	decision_ratio[2] 	0.099263582048076
scalar bus_network.node[3].core_layer 	interests[3] 	48022
scalar bus_network.node[3].core_layer 	data[3] 	47803
scalar bus_network.node[3].content_store 	p_hit[3] 	0.0045604098121694
scalar bus_network.node[3].content_store 	hits[3] 	219
scalar bus_network.node[3].content_store 	misses[3] 	47803
scalar bus_network.node[3].content_store 	decision_yes[3] 	4758
scalar bus_network.node[3].content_store 	decision_no[3] 	43045
scalar bus_network.node[3].content_store 	decision_ratio[3] 	0.099533502081459
scalar bus_network.node[4].core_layer 	interests[4] 	59606
scalar bus_network.node[4].core_layer 	data[4] 	59358
scalar bus_network.node[4].content_store 	p_hit[4] 	0.004127101298527
scalar bus_network.node[4].content_store 	hits[4] 	246
scalar bus_network.node[4].content_store 	misses[4] 	59360
scalar bus_network.node[4].content_store 	decision_yes[4] 	5924
scalar bus_network.node[4].content_store 	decision_no[4] 	53434
scalar bus_network.node[4].content_store 	decision_ratio[4] 	0.099801206240102
scalar bus_network.node[5].core_layer 	interests[5] 	71282
scalar bus_network.node[5].core_layer 	data[5] 	71055
scalar bus_network.node[5].content_store 	p_hit[5] 	0.0031564770909907
scalar bus_network.node[5].content_store 	hits[5] 	225
scalar bus_network.node[5].content_store 	misses[5] 	71057
scalar bus_network.node[5].content_store 	decision_yes[5] 	6994
scalar bus_network.node[5].content_store 	decision_no[5] 	64061
scalar bus_network.node[5].content_store 	decision_ratio[5] 	0.098430793047639
scalar bus_network.node[6].core_layer 	interests[6] 	82910
scalar bus_network.node[6].core_layer 	data[6] 	82683
scalar bus_network.node[6].content_store 	p_hit[6] 	0.0027258473043059
scalar bus_network.node[6].content_store 	hits[6] 	226
scalar bus_network.node[6].content_store 	misses[6] 	82684
scalar bus_network.node[6].content_store 	decision_yes[6] 	8139
scalar bus_network.node[6].content_store 	decision_no[6] 	74544
scalar bus_network.node[6].content_store 	decision_ratio[6] 	0.098436196074163
scalar bus_network.node[7].core_layer 	interests[7] 	94506
scalar bus_network.node[7].core_layer 	data[7] 	94321
scalar bus_network.node[7].content_store 	p_hit[7] 	0.0019469663301801
scalar bus_network.node[7].content_store 	hits[7] 	184
scalar bus_network.node[7].content_store 	misses[7] 	94322
scalar bus_network.node[7].content_store 	decision_yes[7] 	9396
scalar bus_network.node[7].content_store 	decision_no[7] 	84925
scalar bus_network.node[7].content_store 	decision_ratio[7] 	0.099617264448002
scalar bus_network.node[8].core_layer 	interests[8] 	106103
scalar bus_network.node[8].core_layer 	data[8] 	105895
scalar bus_network.node[8].content_store 	p_hit[8] 	0.0019603592735361
scalar bus_network.node[8].content_store 	hits[8] 	208
scalar bus_network.node[8].content_store 	misses[8] 	105895
scalar bus_network.node[8].content_store 	decision_yes[8] 	10600
scalar bus_network.node[8].content_store 	decision_no[8] 	95295
scalar bus_network.node[8].content_store 	decision_ratio[8] 	0.10009915482317
scalar bus_network.node[9].core_layer 	interests[9] 	117730
scalar bus_network.node[9].core_layer 	repo_load[9] 	117530
scalar bus_network.node[9].core_layer 	data[9] 	0
scalar bus_network.node[9].content_store 	p_hit[9] 	0.0016988023443472
scalar bus_network.node[9].content_store 	hits[9] 	200
scalar bus_network.node[9].content_store 	misses[9] 	117530
scalar bus_network.node[9].content_store 	decision_yes[9] 	11738
scalar bus_network.node[9].content_store 	decision_no[9] 	105792
scalar bus_network.node[9].content_store 	decision_ratio[9] 	0.099872373011146
scalar bus_network.client[0] 	hdistance[0] 	9.8223429653413
scalar bus_network.client[0] 	downloads[0] 	12147
scalar bus_network.client[0] 	avg_time[0] 	0.017697864738
scalar bus_network.client[1] 	hdistance[1] 	8.8390814196242
scalar bus_network.client[1] 	downloads[1] 	11975
scalar bus_network.client[1] 	avg_time[1] 	0.015728649414
scalar bus_network.client[2] 	hdistance[2] 	7.8557587906122
scalar bus_network.client[2] 	downloads[2] 	11973
scalar bus_network.client[2] 	avg_time[2] 	0.013762629582
scalar bus_network.client[3] 	hdistance[3] 	6.8745319910142
scalar bus_network.client[3] 	downloads[3] 	12019
scalar bus_network.client[3] 	avg_time[3] 	0.011800022074
scalar bus_network.client[4] 	hdistance[4] 	5.8999243761029
scalar bus_network.client[4] 	downloads[4] 	11901
scalar bus_network.client[4] 	avg_time[4] 	0.009853790827
scalar bus_network.client[5] 	hdistance[5] 	4.9458119940525
scalar bus_network.client[5] 	downloads[5] 	12106
scalar bus_network.client[5] 	avg_time[5] 	0.007938209407
scalar bus_network.client[6] 	hdistance[6] 	3.9636514522822
scalar bus_network.client[6] 	downloads[6] 	12050
scalar bus_network.client[6] 	avg_time[6] 	0.005965308193
scalar bus_network.client[7] 	hdistance[7] 	2.9819307344822
scalar bus_network.client[7] 	downloads[7] 	11954
scalar bus_network.client[7] 	avg_time[7] 	0.003988787387
scalar bus_network.client[8] 	hdistance[8] 	1.9894028595458
scalar bus_network.client[8] 	downloads[8] 	11890
scalar bus_network.client[8] 	avg_time[8] 	0.001999660668
scalar bus_network.client[9] 	hdistance[9] 	0.99789792314807
scalar bus_network.client[9] 	downloads[9] 	11893
scalar bus_network.client[9] 	avg_time[9] 	0
