version 2
run General-97-20160902-13:49:09-7280
attr a 0.9
attr cd wfc0.01
attr configname General
attr cr lru
attr datetime 20160902-13:49:09
attr experiment General
attr fsize 1
attr inifile hw5115/scenario_Y/omnetp.ini
attr iterationvars "$name=tree_4_3, $un=04, $rep=18, $cd=wfc0.01, $cr=lru, $fsize=1, $a=0.9, $sl=nrr, $ttl=1000, $variance=0.05"
attr iterationvars2 "$name=tree_4_3, $un=04, $rep=18, $cd=wfc0.01, $cr=lru, $fsize=1, $a=0.9, $sl=nrr, $ttl=1000, $variance=0.05, $repetition=0"
attr measurement "$name=tree_4_3, $un=04, $rep=18, $cd=wfc0.01, $cr=lru, $fsize=1, $a=0.9, $sl=nrr, $ttl=1000, $variance=0.05"
attr name tree_4_3
attr network networks.${name}_u${un}_r${rep}_network
attr processid 7280
attr rep 18
attr repetition 0
attr replication #0
attr resultdir results
attr runnumber 97
attr seedset 18
attr sl nrr
attr ttl 1000
attr un 04
attr variance 0.05

scalar . 	a 	0.9
scalar . 	fsize 	1
scalar . 	rep 	18
scalar . 	ttl 	1000
scalar . 	un 	04
scalar . 	variance 	0.05
scalar tree_4_3_u04_r18_network.content_distribution 	repo-0 	0
scalar tree_4_3_u04_r18_network.content_distribution 	client-0 	13
scalar tree_4_3_u04_r18_network.content_distribution 	client-1 	14
scalar tree_4_3_u04_r18_network.content_distribution 	client-2 	15
scalar tree_4_3_u04_r18_network.content_distribution 	client-3 	16
scalar tree_4_3_u04_r18_network.content_distribution 	client-4 	17
scalar tree_4_3_u04_r18_network.content_distribution 	client-5 	18
scalar tree_4_3_u04_r18_network.content_distribution 	client-6 	19
scalar tree_4_3_u04_r18_network.content_distribution 	client-7 	20
scalar tree_4_3_u04_r18_network.content_distribution 	client-8 	21
scalar tree_4_3_u04_r18_network.content_distribution 	client-9 	22
scalar tree_4_3_u04_r18_network.content_distribution 	client-10 	23
scalar tree_4_3_u04_r18_network.content_distribution 	client-11 	24
scalar tree_4_3_u04_r18_network.content_distribution 	client-12 	25
scalar tree_4_3_u04_r18_network.content_distribution 	client-13 	26
scalar tree_4_3_u04_r18_network.content_distribution 	client-14 	27
scalar tree_4_3_u04_r18_network.content_distribution 	client-15 	28
scalar tree_4_3_u04_r18_network.content_distribution 	client-16 	29
scalar tree_4_3_u04_r18_network.content_distribution 	client-17 	30
scalar tree_4_3_u04_r18_network.content_distribution 	client-18 	31
scalar tree_4_3_u04_r18_network.content_distribution 	client-19 	32
scalar tree_4_3_u04_r18_network.content_distribution 	client-20 	33
scalar tree_4_3_u04_r18_network.content_distribution 	client-21 	34
scalar tree_4_3_u04_r18_network.content_distribution 	client-22 	35
scalar tree_4_3_u04_r18_network.content_distribution 	client-23 	36
scalar tree_4_3_u04_r18_network.content_distribution 	client-24 	37
scalar tree_4_3_u04_r18_network.content_distribution 	client-25 	38
scalar tree_4_3_u04_r18_network.content_distribution 	client-26 	39
scalar tree_4_3_u04_r18_network.content_distribution 	repo-0_card 	100000
scalar tree_4_3_u04_r18_network.content_distribution 	repo-0_price 	0
scalar tree_4_3_u04_r18_network.statistics 	stabilization_time 	1569.9
scalar tree_4_3_u04_r18_network.statistics 	p_hit 	0.22347807222293
scalar tree_4_3_u04_r18_network.statistics 	interests 	25235.125
scalar tree_4_3_u04_r18_network.statistics 	data 	17123.325
scalar tree_4_3_u04_r18_network.statistics 	hdistance 	2.70633568141
scalar tree_4_3_u04_r18_network.statistics 	avg_time 	0.004221975802
scalar tree_4_3_u04_r18_network.statistics 	downloads 	324462
scalar tree_4_3_u04_r18_network.statistics 	total_cost 	0
scalar tree_4_3_u04_r18_network.statistics 	total_replicas 	100000
scalar tree_4_3_u04_r18_network.statistics 	inner_hit 	0.40469454050089
scalar tree_4_3_u04_r18_network.node[0].core_layer 	interests[0] 	195498
scalar tree_4_3_u04_r18_network.node[0].core_layer 	repo_load[0] 	193154
scalar tree_4_3_u04_r18_network.node[0].core_layer 	data[0] 	0
scalar tree_4_3_u04_r18_network.node[0].core_layer 	repo_int[0] 	193154
scalar tree_4_3_u04_r18_network.node[0].content_store 	p_hit[0] 	0.011989892479718
scalar tree_4_3_u04_r18_network.node[0].content_store 	hits[0] 	2344
scalar tree_4_3_u04_r18_network.node[0].content_store 	misses[0] 	193154
scalar tree_4_3_u04_r18_network.node[0].content_store 	decision_yes[0] 	2902
scalar tree_4_3_u04_r18_network.node[0].content_store 	decision_no[0] 	190252
scalar tree_4_3_u04_r18_network.node[0].content_store 	decision_ratio[0] 	0.015024281143543
scalar tree_4_3_u04_r18_network.node[1].core_layer 	interests[1] 	69375
scalar tree_4_3_u04_r18_network.node[1].core_layer 	data[1] 	68102
scalar tree_4_3_u04_r18_network.node[1].content_store 	p_hit[1] 	0.018335135135135
scalar tree_4_3_u04_r18_network.node[1].content_store 	hits[1] 	1272
scalar tree_4_3_u04_r18_network.node[1].content_store 	misses[1] 	68103
scalar tree_4_3_u04_r18_network.node[1].content_store 	decision_yes[1] 	734
scalar tree_4_3_u04_r18_network.node[1].content_store 	decision_no[1] 	67368
scalar tree_4_3_u04_r18_network.node[1].content_store 	decision_ratio[1] 	0.010777950720977
scalar tree_4_3_u04_r18_network.node[2].core_layer 	interests[2] 	72789
scalar tree_4_3_u04_r18_network.node[2].core_layer 	data[2] 	70829
scalar tree_4_3_u04_r18_network.node[2].content_store 	p_hit[2] 	0.026927145585185
scalar tree_4_3_u04_r18_network.node[2].content_store 	hits[2] 	1960
scalar tree_4_3_u04_r18_network.node[2].content_store 	misses[2] 	70829
scalar tree_4_3_u04_r18_network.node[2].content_store 	decision_yes[2] 	834
scalar tree_4_3_u04_r18_network.node[2].content_store 	decision_no[2] 	69995
scalar tree_4_3_u04_r18_network.node[2].content_store 	decision_ratio[2] 	0.011774837990089
scalar tree_4_3_u04_r18_network.node[3].core_layer 	interests[3] 	73067
scalar tree_4_3_u04_r18_network.node[3].core_layer 	data[3] 	70878
scalar tree_4_3_u04_r18_network.node[3].content_store 	p_hit[3] 	0.029917746725608
scalar tree_4_3_u04_r18_network.node[3].content_store 	hits[3] 	2186
scalar tree_4_3_u04_r18_network.node[3].content_store 	misses[3] 	70881
scalar tree_4_3_u04_r18_network.node[3].content_store 	decision_yes[3] 	918
scalar tree_4_3_u04_r18_network.node[3].content_store 	decision_no[3] 	69960
scalar tree_4_3_u04_r18_network.node[3].content_store 	decision_ratio[3] 	0.012951832726657
scalar tree_4_3_u04_r18_network.node[4].core_layer 	interests[4] 	27657
scalar tree_4_3_u04_r18_network.node[4].core_layer 	data[4] 	25995
scalar tree_4_3_u04_r18_network.node[4].content_store 	p_hit[4] 	0.060057128394258
scalar tree_4_3_u04_r18_network.node[4].content_store 	hits[4] 	1661
scalar tree_4_3_u04_r18_network.node[4].content_store 	misses[4] 	25996
scalar tree_4_3_u04_r18_network.node[4].content_store 	decision_yes[4] 	363
scalar tree_4_3_u04_r18_network.node[4].content_store 	decision_no[4] 	25632
scalar tree_4_3_u04_r18_network.node[4].content_store 	decision_ratio[4] 	0.013964223889209
scalar tree_4_3_u04_r18_network.node[5].core_layer 	interests[5] 	28811
scalar tree_4_3_u04_r18_network.node[5].core_layer 	data[5] 	25863
scalar tree_4_3_u04_r18_network.node[5].content_store 	p_hit[5] 	0.10232202978029
scalar tree_4_3_u04_r18_network.node[5].content_store 	hits[5] 	2948
scalar tree_4_3_u04_r18_network.node[5].content_store 	misses[5] 	25863
scalar tree_4_3_u04_r18_network.node[5].content_store 	decision_yes[5] 	415
scalar tree_4_3_u04_r18_network.node[5].content_store 	decision_no[5] 	25448
scalar tree_4_3_u04_r18_network.node[5].content_store 	decision_ratio[5] 	0.016046089007462
scalar tree_4_3_u04_r18_network.node[6].core_layer 	interests[6] 	30885
scalar tree_4_3_u04_r18_network.node[6].core_layer 	data[6] 	27533
scalar tree_4_3_u04_r18_network.node[6].content_store 	p_hit[6] 	0.10849927149102
scalar tree_4_3_u04_r18_network.node[6].content_store 	hits[6] 	3351
scalar tree_4_3_u04_r18_network.node[6].content_store 	misses[6] 	27534
scalar tree_4_3_u04_r18_network.node[6].content_store 	decision_yes[6] 	483
scalar tree_4_3_u04_r18_network.node[6].content_store 	decision_no[6] 	27050
scalar tree_4_3_u04_r18_network.node[6].content_store 	decision_ratio[6] 	0.017542585261323
scalar tree_4_3_u04_r18_network.node[7].core_layer 	interests[7] 	45144
scalar tree_4_3_u04_r18_network.node[7].core_layer 	data[7] 	42579
scalar tree_4_3_u04_r18_network.node[7].content_store 	p_hit[7] 	0.056796030480241
scalar tree_4_3_u04_r18_network.node[7].content_store 	hits[7] 	2564
scalar tree_4_3_u04_r18_network.node[7].content_store 	misses[7] 	42580
scalar tree_4_3_u04_r18_network.node[7].content_store 	decision_yes[7] 	621
scalar tree_4_3_u04_r18_network.node[7].content_store 	decision_no[7] 	41958
scalar tree_4_3_u04_r18_network.node[7].content_store 	decision_ratio[7] 	0.014584654407102
scalar tree_4_3_u04_r18_network.node[8].core_layer 	interests[8] 	28012
scalar tree_4_3_u04_r18_network.node[8].core_layer 	data[8] 	25814
scalar tree_4_3_u04_r18_network.node[8].content_store 	p_hit[8] 	0.078466371555048
scalar tree_4_3_u04_r18_network.node[8].content_store 	hits[8] 	2198
scalar tree_4_3_u04_r18_network.node[8].content_store 	misses[8] 	25814
scalar tree_4_3_u04_r18_network.node[8].content_store 	decision_yes[8] 	387
scalar tree_4_3_u04_r18_network.node[8].content_store 	decision_no[8] 	25427
scalar tree_4_3_u04_r18_network.node[8].content_store 	decision_ratio[8] 	0.014991864879523
scalar tree_4_3_u04_r18_network.node[9].core_layer 	interests[9] 	11067
scalar tree_4_3_u04_r18_network.node[9].core_layer 	data[9] 	8833
scalar tree_4_3_u04_r18_network.node[9].content_store 	p_hit[9] 	0.20186138971718
scalar tree_4_3_u04_r18_network.node[9].content_store 	hits[9] 	2234
scalar tree_4_3_u04_r18_network.node[9].content_store 	misses[9] 	8833
scalar tree_4_3_u04_r18_network.node[9].content_store 	decision_yes[9] 	152
scalar tree_4_3_u04_r18_network.node[9].content_store 	decision_no[9] 	8681
scalar tree_4_3_u04_r18_network.node[9].content_store 	decision_ratio[9] 	0.017208196535718
scalar tree_4_3_u04_r18_network.node[10].core_layer 	interests[10] 	35644
scalar tree_4_3_u04_r18_network.node[10].core_layer 	data[10] 	33516
scalar tree_4_3_u04_r18_network.node[10].content_store 	p_hit[10] 	0.059673437324655
scalar tree_4_3_u04_r18_network.node[10].content_store 	hits[10] 	2127
scalar tree_4_3_u04_r18_network.node[10].content_store 	misses[10] 	33517
scalar tree_4_3_u04_r18_network.node[10].content_store 	decision_yes[10] 	494
scalar tree_4_3_u04_r18_network.node[10].content_store 	decision_no[10] 	33022
scalar tree_4_3_u04_r18_network.node[10].content_store 	decision_ratio[10] 	0.014739229024943
scalar tree_4_3_u04_r18_network.node[11].core_layer 	interests[11] 	28529
scalar tree_4_3_u04_r18_network.node[11].core_layer 	data[11] 	25834
scalar tree_4_3_u04_r18_network.node[11].content_store 	p_hit[11] 	0.094465280942199
scalar tree_4_3_u04_r18_network.node[11].content_store 	hits[11] 	2695
scalar tree_4_3_u04_r18_network.node[11].content_store 	misses[11] 	25834
scalar tree_4_3_u04_r18_network.node[11].content_store 	decision_yes[11] 	439
scalar tree_4_3_u04_r18_network.node[11].content_store 	decision_no[11] 	25395
scalar tree_4_3_u04_r18_network.node[11].content_store 	decision_ratio[11] 	0.01699310985523
scalar tree_4_3_u04_r18_network.node[12].core_layer 	interests[12] 	20151
scalar tree_4_3_u04_r18_network.node[12].core_layer 	data[12] 	17570
scalar tree_4_3_u04_r18_network.node[12].content_store 	p_hit[12] 	0.12813259887847
scalar tree_4_3_u04_r18_network.node[12].content_store 	hits[12] 	2582
scalar tree_4_3_u04_r18_network.node[12].content_store 	misses[12] 	17569
scalar tree_4_3_u04_r18_network.node[12].content_store 	decision_yes[12] 	333
scalar tree_4_3_u04_r18_network.node[12].content_store 	decision_no[12] 	17237
scalar tree_4_3_u04_r18_network.node[12].content_store 	decision_ratio[12] 	0.018952760387023
scalar tree_4_3_u04_r18_network.node[13].core_layer 	interests[13] 	12282
scalar tree_4_3_u04_r18_network.node[13].core_layer 	data[13] 	8883
scalar tree_4_3_u04_r18_network.node[13].content_store 	p_hit[13] 	0.27674645823156
scalar tree_4_3_u04_r18_network.node[13].content_store 	hits[13] 	3399
scalar tree_4_3_u04_r18_network.node[13].content_store 	misses[13] 	8883
scalar tree_4_3_u04_r18_network.node[13].content_store 	decision_yes[13] 	142
scalar tree_4_3_u04_r18_network.node[13].content_store 	decision_no[13] 	8741
scalar tree_4_3_u04_r18_network.node[13].content_store 	decision_ratio[13] 	0.015985590453676
scalar tree_4_3_u04_r18_network.node[14].core_layer 	interests[14] 	12503
scalar tree_4_3_u04_r18_network.node[14].core_layer 	data[14] 	9023
scalar tree_4_3_u04_r18_network.node[14].content_store 	p_hit[14] 	0.27833320003199
scalar tree_4_3_u04_r18_network.node[14].content_store 	hits[14] 	3480
scalar tree_4_3_u04_r18_network.node[14].content_store 	misses[14] 	9023
scalar tree_4_3_u04_r18_network.node[14].content_store 	decision_yes[14] 	113
scalar tree_4_3_u04_r18_network.node[14].content_store 	decision_no[14] 	8910
scalar tree_4_3_u04_r18_network.node[14].content_store 	decision_ratio[14] 	0.012523550925413
scalar tree_4_3_u04_r18_network.node[15].core_layer 	interests[15] 	12560
scalar tree_4_3_u04_r18_network.node[15].core_layer 	data[15] 	8995
scalar tree_4_3_u04_r18_network.node[15].content_store 	p_hit[15] 	0.28367834394904
scalar tree_4_3_u04_r18_network.node[15].content_store 	hits[15] 	3563
scalar tree_4_3_u04_r18_network.node[15].content_store 	misses[15] 	8997
scalar tree_4_3_u04_r18_network.node[15].content_store 	decision_yes[15] 	113
scalar tree_4_3_u04_r18_network.node[15].content_store 	decision_no[15] 	8882
scalar tree_4_3_u04_r18_network.node[15].content_store 	decision_ratio[15] 	0.012562534741523
scalar tree_4_3_u04_r18_network.node[16].core_layer 	interests[16] 	12615
scalar tree_4_3_u04_r18_network.node[16].core_layer 	data[16] 	8863
scalar tree_4_3_u04_r18_network.node[16].content_store 	p_hit[16] 	0.29742370194213
scalar tree_4_3_u04_r18_network.node[16].content_store 	hits[16] 	3752
scalar tree_4_3_u04_r18_network.node[16].content_store 	misses[16] 	8863
scalar tree_4_3_u04_r18_network.node[16].content_store 	decision_yes[16] 	99
scalar tree_4_3_u04_r18_network.node[16].content_store 	decision_no[16] 	8764
scalar tree_4_3_u04_r18_network.node[16].content_store 	decision_ratio[16] 	0.011170032720298
scalar tree_4_3_u04_r18_network.node[17].core_layer 	interests[17] 	12864
scalar tree_4_3_u04_r18_network.node[17].core_layer 	data[17] 	9158
scalar tree_4_3_u04_r18_network.node[17].content_store 	p_hit[17] 	0.2880907960199
scalar tree_4_3_u04_r18_network.node[17].content_store 	hits[17] 	3706
scalar tree_4_3_u04_r18_network.node[17].content_store 	misses[17] 	9158
scalar tree_4_3_u04_r18_network.node[17].content_store 	decision_yes[17] 	129
scalar tree_4_3_u04_r18_network.node[17].content_store 	decision_no[17] 	9029
scalar tree_4_3_u04_r18_network.node[17].content_store 	decision_ratio[17] 	0.014086044987989
scalar tree_4_3_u04_r18_network.node[18].core_layer 	interests[18] 	13404
scalar tree_4_3_u04_r18_network.node[18].core_layer 	data[18] 	9026
scalar tree_4_3_u04_r18_network.node[18].content_store 	p_hit[18] 	0.32661891972546
scalar tree_4_3_u04_r18_network.node[18].content_store 	hits[18] 	4378
scalar tree_4_3_u04_r18_network.node[18].content_store 	misses[18] 	9026
scalar tree_4_3_u04_r18_network.node[18].content_store 	decision_yes[18] 	139
scalar tree_4_3_u04_r18_network.node[18].content_store 	decision_no[18] 	8887
scalar tree_4_3_u04_r18_network.node[18].content_store 	decision_ratio[18] 	0.015399955683581
scalar tree_4_3_u04_r18_network.node[19].core_layer 	interests[19] 	12697
scalar tree_4_3_u04_r18_network.node[19].core_layer 	data[19] 	9038
scalar tree_4_3_u04_r18_network.node[19].content_store 	p_hit[19] 	0.28817830983697
scalar tree_4_3_u04_r18_network.node[19].content_store 	hits[19] 	3659
scalar tree_4_3_u04_r18_network.node[19].content_store 	misses[19] 	9038
scalar tree_4_3_u04_r18_network.node[19].content_store 	decision_yes[19] 	118
scalar tree_4_3_u04_r18_network.node[19].content_store 	decision_no[19] 	8920
scalar tree_4_3_u04_r18_network.node[19].content_store 	decision_ratio[19] 	0.013055985837575
scalar tree_4_3_u04_r18_network.node[20].core_layer 	interests[20] 	12763
scalar tree_4_3_u04_r18_network.node[20].core_layer 	data[20] 	8973
scalar tree_4_3_u04_r18_network.node[20].content_store 	p_hit[20] 	0.29695212724281
scalar tree_4_3_u04_r18_network.node[20].content_store 	hits[20] 	3790
scalar tree_4_3_u04_r18_network.node[20].content_store 	misses[20] 	8973
scalar tree_4_3_u04_r18_network.node[20].content_store 	decision_yes[20] 	107
scalar tree_4_3_u04_r18_network.node[20].content_store 	decision_no[20] 	8866
scalar tree_4_3_u04_r18_network.node[20].content_store 	decision_ratio[20] 	0.011924662877521
scalar tree_4_3_u04_r18_network.node[21].core_layer 	interests[21] 	12626
scalar tree_4_3_u04_r18_network.node[21].core_layer 	data[21] 	8952
scalar tree_4_3_u04_r18_network.node[21].content_store 	p_hit[21] 	0.29090765087914
scalar tree_4_3_u04_r18_network.node[21].content_store 	hits[21] 	3673
scalar tree_4_3_u04_r18_network.node[21].content_store 	misses[21] 	8953
scalar tree_4_3_u04_r18_network.node[21].content_store 	decision_yes[21] 	130
scalar tree_4_3_u04_r18_network.node[21].content_store 	decision_no[21] 	8822
scalar tree_4_3_u04_r18_network.node[21].content_store 	decision_ratio[21] 	0.014521894548704
scalar tree_4_3_u04_r18_network.node[22].core_layer 	interests[22] 	12698
scalar tree_4_3_u04_r18_network.node[22].core_layer 	data[22] 	8917
scalar tree_4_3_u04_r18_network.node[22].content_store 	p_hit[22] 	0.29776342731139
scalar tree_4_3_u04_r18_network.node[22].content_store 	hits[22] 	3781
scalar tree_4_3_u04_r18_network.node[22].content_store 	misses[22] 	8917
scalar tree_4_3_u04_r18_network.node[22].content_store 	decision_yes[22] 	126
scalar tree_4_3_u04_r18_network.node[22].content_store 	decision_no[22] 	8791
scalar tree_4_3_u04_r18_network.node[22].content_store 	decision_ratio[22] 	0.0141303128855
scalar tree_4_3_u04_r18_network.node[23].core_layer 	interests[23] 	12664
scalar tree_4_3_u04_r18_network.node[23].core_layer 	data[23] 	9046
scalar tree_4_3_u04_r18_network.node[23].content_store 	p_hit[23] 	0.28569172457359
scalar tree_4_3_u04_r18_network.node[23].content_store 	hits[23] 	3618
scalar tree_4_3_u04_r18_network.node[23].content_store 	misses[23] 	9046
scalar tree_4_3_u04_r18_network.node[23].content_store 	decision_yes[23] 	129
scalar tree_4_3_u04_r18_network.node[23].content_store 	decision_no[23] 	8917
scalar tree_4_3_u04_r18_network.node[23].content_store 	decision_ratio[23] 	0.014260446606235
scalar tree_4_3_u04_r18_network.node[24].core_layer 	interests[24] 	12621
scalar tree_4_3_u04_r18_network.node[24].core_layer 	data[24] 	8857
scalar tree_4_3_u04_r18_network.node[24].content_store 	p_hit[24] 	0.29823310355756
scalar tree_4_3_u04_r18_network.node[24].content_store 	hits[24] 	3764
scalar tree_4_3_u04_r18_network.node[24].content_store 	misses[24] 	8857
scalar tree_4_3_u04_r18_network.node[24].content_store 	decision_yes[24] 	105
scalar tree_4_3_u04_r18_network.node[24].content_store 	decision_no[24] 	8752
scalar tree_4_3_u04_r18_network.node[24].content_store 	decision_ratio[24] 	0.011855029919837
scalar tree_4_3_u04_r18_network.node[25].core_layer 	interests[25] 	13246
scalar tree_4_3_u04_r18_network.node[25].core_layer 	data[25] 	8950
scalar tree_4_3_u04_r18_network.node[25].content_store 	p_hit[25] 	0.32432432432432
scalar tree_4_3_u04_r18_network.node[25].content_store 	hits[25] 	4296
scalar tree_4_3_u04_r18_network.node[25].content_store 	misses[25] 	8950
scalar tree_4_3_u04_r18_network.node[25].content_store 	decision_yes[25] 	139
scalar tree_4_3_u04_r18_network.node[25].content_store 	decision_no[25] 	8811
scalar tree_4_3_u04_r18_network.node[25].content_store 	decision_ratio[25] 	0.015530726256983
scalar tree_4_3_u04_r18_network.node[26].core_layer 	interests[26] 	12386
scalar tree_4_3_u04_r18_network.node[26].core_layer 	data[26] 	8838
scalar tree_4_3_u04_r18_network.node[26].content_store 	p_hit[26] 	0.28645244631035
scalar tree_4_3_u04_r18_network.node[26].content_store 	hits[26] 	3548
scalar tree_4_3_u04_r18_network.node[26].content_store 	misses[26] 	8838
scalar tree_4_3_u04_r18_network.node[26].content_store 	decision_yes[26] 	113
scalar tree_4_3_u04_r18_network.node[26].content_store 	decision_no[26] 	8725
scalar tree_4_3_u04_r18_network.node[26].content_store 	decision_ratio[26] 	0.012785698121747
scalar tree_4_3_u04_r18_network.node[27].core_layer 	interests[27] 	12380
scalar tree_4_3_u04_r18_network.node[27].core_layer 	data[27] 	8877
scalar tree_4_3_u04_r18_network.node[27].content_store 	p_hit[27] 	0.2829563812601
scalar tree_4_3_u04_r18_network.node[27].content_store 	hits[27] 	3503
scalar tree_4_3_u04_r18_network.node[27].content_store 	misses[27] 	8877
scalar tree_4_3_u04_r18_network.node[27].content_store 	decision_yes[27] 	122
scalar tree_4_3_u04_r18_network.node[27].content_store 	decision_no[27] 	8755
scalar tree_4_3_u04_r18_network.node[27].content_store 	decision_ratio[27] 	0.013743381773122
scalar tree_4_3_u04_r18_network.node[28].core_layer 	interests[28] 	13150
scalar tree_4_3_u04_r18_network.node[28].core_layer 	data[28] 	9113
scalar tree_4_3_u04_r18_network.node[28].content_store 	p_hit[28] 	0.30699619771863
scalar tree_4_3_u04_r18_network.node[28].content_store 	hits[28] 	4037
scalar tree_4_3_u04_r18_network.node[28].content_store 	misses[28] 	9113
scalar tree_4_3_u04_r18_network.node[28].content_store 	decision_yes[28] 	152
scalar tree_4_3_u04_r18_network.node[28].content_store 	decision_no[28] 	8961
scalar tree_4_3_u04_r18_network.node[28].content_store 	decision_ratio[28] 	0.016679468890596
scalar tree_4_3_u04_r18_network.node[29].core_layer 	interests[29] 	12937
scalar tree_4_3_u04_r18_network.node[29].core_layer 	data[29] 	9083
scalar tree_4_3_u04_r18_network.node[29].content_store 	p_hit[29] 	0.29790523305249
scalar tree_4_3_u04_r18_network.node[29].content_store 	hits[29] 	3854
scalar tree_4_3_u04_r18_network.node[29].content_store 	misses[29] 	9083
scalar tree_4_3_u04_r18_network.node[29].content_store 	decision_yes[29] 	154
scalar tree_4_3_u04_r18_network.node[29].content_store 	decision_no[29] 	8929
scalar tree_4_3_u04_r18_network.node[29].content_store 	decision_ratio[29] 	0.016954750633051
scalar tree_4_3_u04_r18_network.node[30].core_layer 	interests[30] 	12209
scalar tree_4_3_u04_r18_network.node[30].core_layer 	data[30] 	8774
scalar tree_4_3_u04_r18_network.node[30].content_store 	p_hit[30] 	0.2813498239004
scalar tree_4_3_u04_r18_network.node[30].content_store 	hits[30] 	3435
scalar tree_4_3_u04_r18_network.node[30].content_store 	misses[30] 	8774
scalar tree_4_3_u04_r18_network.node[30].content_store 	decision_yes[30] 	116
scalar tree_4_3_u04_r18_network.node[30].content_store 	decision_no[30] 	8658
scalar tree_4_3_u04_r18_network.node[30].content_store 	decision_ratio[30] 	0.01322087987235
scalar tree_4_3_u04_r18_network.node[31].core_layer 	interests[31] 	12497
scalar tree_4_3_u04_r18_network.node[31].core_layer 	data[31] 	9032
scalar tree_4_3_u04_r18_network.node[31].content_store 	p_hit[31] 	0.27726654397055
scalar tree_4_3_u04_r18_network.node[31].content_store 	hits[31] 	3465
scalar tree_4_3_u04_r18_network.node[31].content_store 	misses[31] 	9032
scalar tree_4_3_u04_r18_network.node[31].content_store 	decision_yes[31] 	132
scalar tree_4_3_u04_r18_network.node[31].content_store 	decision_no[31] 	8900
scalar tree_4_3_u04_r18_network.node[31].content_store 	decision_ratio[31] 	0.014614703277236
scalar tree_4_3_u04_r18_network.node[32].core_layer 	interests[32] 	12897
scalar tree_4_3_u04_r18_network.node[32].core_layer 	data[32] 	8893
scalar tree_4_3_u04_r18_network.node[32].content_store 	p_hit[32] 	0.31038225944018
scalar tree_4_3_u04_r18_network.node[32].content_store 	hits[32] 	4003
scalar tree_4_3_u04_r18_network.node[32].content_store 	misses[32] 	8894
scalar tree_4_3_u04_r18_network.node[32].content_store 	decision_yes[32] 	131
scalar tree_4_3_u04_r18_network.node[32].content_store 	decision_no[32] 	8762
scalar tree_4_3_u04_r18_network.node[32].content_store 	decision_ratio[32] 	0.014730687057236
scalar tree_4_3_u04_r18_network.node[33].core_layer 	interests[33] 	13204
scalar tree_4_3_u04_r18_network.node[33].core_layer 	data[33] 	9028
scalar tree_4_3_u04_r18_network.node[33].content_store 	p_hit[33] 	0.31626779763708
scalar tree_4_3_u04_r18_network.node[33].content_store 	hits[33] 	4176
scalar tree_4_3_u04_r18_network.node[33].content_store 	misses[33] 	9028
scalar tree_4_3_u04_r18_network.node[33].content_store 	decision_yes[33] 	119
scalar tree_4_3_u04_r18_network.node[33].content_store 	decision_no[33] 	8909
scalar tree_4_3_u04_r18_network.node[33].content_store 	decision_ratio[33] 	0.013181214000886
scalar tree_4_3_u04_r18_network.node[34].core_layer 	interests[34] 	13129
scalar tree_4_3_u04_r18_network.node[34].core_layer 	data[34] 	9097
scalar tree_4_3_u04_r18_network.node[34].content_store 	p_hit[34] 	0.30695407114022
scalar tree_4_3_u04_r18_network.node[34].content_store 	hits[34] 	4030
scalar tree_4_3_u04_r18_network.node[34].content_store 	misses[34] 	9099
scalar tree_4_3_u04_r18_network.node[34].content_store 	decision_yes[34] 	137
scalar tree_4_3_u04_r18_network.node[34].content_store 	decision_no[34] 	8960
scalar tree_4_3_u04_r18_network.node[34].content_store 	decision_ratio[34] 	0.015059909860394
scalar tree_4_3_u04_r18_network.node[35].core_layer 	interests[35] 	12434
scalar tree_4_3_u04_r18_network.node[35].core_layer 	data[35] 	8767
scalar tree_4_3_u04_r18_network.node[35].content_store 	p_hit[35] 	0.29491716261863
scalar tree_4_3_u04_r18_network.node[35].content_store 	hits[35] 	3667
scalar tree_4_3_u04_r18_network.node[35].content_store 	misses[35] 	8767
scalar tree_4_3_u04_r18_network.node[35].content_store 	decision_yes[35] 	112
scalar tree_4_3_u04_r18_network.node[35].content_store 	decision_no[35] 	8655
scalar tree_4_3_u04_r18_network.node[35].content_store 	decision_ratio[35] 	0.012775179650964
scalar tree_4_3_u04_r18_network.node[36].core_layer 	interests[36] 	12390
scalar tree_4_3_u04_r18_network.node[36].core_layer 	data[36] 	8835
scalar tree_4_3_u04_r18_network.node[36].content_store 	p_hit[36] 	0.28692493946731
scalar tree_4_3_u04_r18_network.node[36].content_store 	hits[36] 	3555
scalar tree_4_3_u04_r18_network.node[36].content_store 	misses[36] 	8835
scalar tree_4_3_u04_r18_network.node[36].content_store 	decision_yes[36] 	113
scalar tree_4_3_u04_r18_network.node[36].content_store 	decision_no[36] 	8722
scalar tree_4_3_u04_r18_network.node[36].content_store 	decision_ratio[36] 	0.012790039615167
scalar tree_4_3_u04_r18_network.node[37].core_layer 	interests[37] 	12138
scalar tree_4_3_u04_r18_network.node[37].core_layer 	data[37] 	8675
scalar tree_4_3_u04_r18_network.node[37].content_store 	p_hit[37] 	0.28538474213215
scalar tree_4_3_u04_r18_network.node[37].content_store 	hits[37] 	3464
scalar tree_4_3_u04_r18_network.node[37].content_store 	misses[37] 	8674
scalar tree_4_3_u04_r18_network.node[37].content_store 	decision_yes[37] 	127
scalar tree_4_3_u04_r18_network.node[37].content_store 	decision_no[37] 	8548
scalar tree_4_3_u04_r18_network.node[37].content_store 	decision_ratio[37] 	0.01463976945245
scalar tree_4_3_u04_r18_network.node[38].core_layer 	interests[38] 	12958
scalar tree_4_3_u04_r18_network.node[38].core_layer 	data[38] 	8942
scalar tree_4_3_u04_r18_network.node[38].content_store 	p_hit[38] 	0.30984719864177
scalar tree_4_3_u04_r18_network.node[38].content_store 	hits[38] 	4015
scalar tree_4_3_u04_r18_network.node[38].content_store 	misses[38] 	8943
scalar tree_4_3_u04_r18_network.node[38].content_store 	decision_yes[38] 	133
scalar tree_4_3_u04_r18_network.node[38].content_store 	decision_no[38] 	8809
scalar tree_4_3_u04_r18_network.node[38].content_store 	decision_ratio[38] 	0.014873630060389
scalar tree_4_3_u04_r18_network.node[39].core_layer 	interests[39] 	12524
scalar tree_4_3_u04_r18_network.node[39].core_layer 	data[39] 	8952
scalar tree_4_3_u04_r18_network.node[39].content_store 	p_hit[39] 	0.28513254551262
scalar tree_4_3_u04_r18_network.node[39].content_store 	hits[39] 	3571
scalar tree_4_3_u04_r18_network.node[39].content_store 	misses[39] 	8953
scalar tree_4_3_u04_r18_network.node[39].content_store 	decision_yes[39] 	135
scalar tree_4_3_u04_r18_network.node[39].content_store 	decision_no[39] 	8817
scalar tree_4_3_u04_r18_network.node[39].content_store 	decision_ratio[39] 	0.015080428954424
scalar tree_4_3_u04_r18_network.client[13] 	hdistance[13] 	2.7674575130406
scalar tree_4_3_u04_r18_network.client[13] 	downloads[13] 	11886
scalar tree_4_3_u04_r18_network.client[13] 	avg_time[13] 	0.004293283257
scalar tree_4_3_u04_r18_network.client[14] 	hdistance[14] 	2.7671481634338
scalar tree_4_3_u04_r18_network.client[14] 	downloads[14] 	12115
scalar tree_4_3_u04_r18_network.client[14] 	avg_time[14] 	0.004289555382
scalar tree_4_3_u04_r18_network.client[15] 	hdistance[15] 	2.7574734414889
scalar tree_4_3_u04_r18_network.client[15] 	downloads[15] 	12143
scalar tree_4_3_u04_r18_network.client[15] 	avg_time[15] 	0.004278472572
scalar tree_4_3_u04_r18_network.client[16] 	hdistance[16] 	2.7038179393131
scalar tree_4_3_u04_r18_network.client[16] 	downloads[16] 	11996
scalar tree_4_3_u04_r18_network.client[16] 	avg_time[16] 	0.004254248404
scalar tree_4_3_u04_r18_network.client[17] 	hdistance[17] 	2.7347406316479
scalar tree_4_3_u04_r18_network.client[17] 	downloads[17] 	12222
scalar tree_4_3_u04_r18_network.client[17] 	avg_time[17] 	0.004296838687
scalar tree_4_3_u04_r18_network.client[18] 	hdistance[18] 	2.6362732095491
scalar tree_4_3_u04_r18_network.client[18] 	downloads[18] 	12064
scalar tree_4_3_u04_r18_network.client[18] 	avg_time[18] 	0.004155335195
scalar tree_4_3_u04_r18_network.client[19] 	hdistance[19] 	2.7309323796058
scalar tree_4_3_u04_r18_network.client[19] 	downloads[19] 	12023
scalar tree_4_3_u04_r18_network.client[19] 	avg_time[19] 	0.004299423083
scalar tree_4_3_u04_r18_network.client[20] 	hdistance[20] 	2.694121526919
scalar tree_4_3_u04_r18_network.client[20] 	downloads[20] 	12129
scalar tree_4_3_u04_r18_network.client[20] 	avg_time[20] 	0.004235300791
scalar tree_4_3_u04_r18_network.client[21] 	hdistance[21] 	2.7237943737441
scalar tree_4_3_u04_r18_network.client[21] 	downloads[21] 	11944
scalar tree_4_3_u04_r18_network.client[21] 	avg_time[21] 	0.004275423334
scalar tree_4_3_u04_r18_network.client[22] 	hdistance[22] 	2.6862566312997
scalar tree_4_3_u04_r18_network.client[22] 	downloads[22] 	12064
scalar tree_4_3_u04_r18_network.client[22] 	avg_time[22] 	0.004187331223
scalar tree_4_3_u04_r18_network.client[23] 	hdistance[23] 	2.7172287755441
scalar tree_4_3_u04_r18_network.client[23] 	downloads[23] 	12038
scalar tree_4_3_u04_r18_network.client[23] 	avg_time[23] 	0.004236227285
scalar tree_4_3_u04_r18_network.client[24] 	hdistance[24] 	2.6961160193366
scalar tree_4_3_u04_r18_network.client[24] 	downloads[24] 	11998
scalar tree_4_3_u04_r18_network.client[24] 	avg_time[24] 	0.004199696936
scalar tree_4_3_u04_r18_network.client[25] 	hdistance[25] 	2.6866147011985
scalar tree_4_3_u04_r18_network.client[25] 	downloads[25] 	11931
scalar tree_4_3_u04_r18_network.client[25] 	avg_time[25] 	0.004168298116
scalar tree_4_3_u04_r18_network.client[26] 	hdistance[26] 	2.7260020208824
scalar tree_4_3_u04_r18_network.client[26] 	downloads[26] 	11876
scalar tree_4_3_u04_r18_network.client[26] 	avg_time[26] 	0.004253280953
scalar tree_4_3_u04_r18_network.client[27] 	hdistance[27] 	2.7313295378433
scalar tree_4_3_u04_r18_network.client[27] 	downloads[27] 	11944
scalar tree_4_3_u04_r18_network.client[27] 	avg_time[27] 	0.0042576996
scalar tree_4_3_u04_r18_network.client[28] 	hdistance[28] 	2.6799142480211
scalar tree_4_3_u04_r18_network.client[28] 	downloads[28] 	12128
scalar tree_4_3_u04_r18_network.client[28] 	avg_time[28] 	0.004157978539
scalar tree_4_3_u04_r18_network.client[29] 	hdistance[29] 	2.675381443299
scalar tree_4_3_u04_r18_network.client[29] 	downloads[29] 	12125
scalar tree_4_3_u04_r18_network.client[29] 	avg_time[29] 	0.00415537841
scalar tree_4_3_u04_r18_network.client[30] 	hdistance[30] 	2.7154920157178
scalar tree_4_3_u04_r18_network.client[30] 	downloads[30] 	11961
scalar tree_4_3_u04_r18_network.client[30] 	avg_time[30] 	0.004235930461
scalar tree_4_3_u04_r18_network.client[31] 	hdistance[31] 	2.7331011030936
scalar tree_4_3_u04_r18_network.client[31] 	downloads[31] 	12057
scalar tree_4_3_u04_r18_network.client[31] 	avg_time[31] 	0.004281161457
scalar tree_4_3_u04_r18_network.client[32] 	hdistance[32] 	2.6721862654451
scalar tree_4_3_u04_r18_network.client[32] 	downloads[32] 	11897
scalar tree_4_3_u04_r18_network.client[32] 	avg_time[32] 	0.004155514026
scalar tree_4_3_u04_r18_network.client[33] 	hdistance[33] 	2.6626049728306
scalar tree_4_3_u04_r18_network.client[33] 	downloads[33] 	12146
scalar tree_4_3_u04_r18_network.client[33] 	avg_time[33] 	0.00413847878
scalar tree_4_3_u04_r18_network.client[34] 	hdistance[34] 	2.6728243021347
scalar tree_4_3_u04_r18_network.client[34] 	downloads[34] 	12180
scalar tree_4_3_u04_r18_network.client[34] 	avg_time[34] 	0.004152384008
scalar tree_4_3_u04_r18_network.client[35] 	hdistance[35] 	2.6869346733668
scalar tree_4_3_u04_r18_network.client[35] 	downloads[35] 	11940
scalar tree_4_3_u04_r18_network.client[35] 	avg_time[35] 	0.004184299834
scalar tree_4_3_u04_r18_network.client[36] 	hdistance[36] 	2.7086806432601
scalar tree_4_3_u04_r18_network.client[36] 	downloads[36] 	11877
scalar tree_4_3_u04_r18_network.client[36] 	avg_time[36] 	0.004228000767
scalar tree_4_3_u04_r18_network.client[37] 	hdistance[37] 	2.7006374840629
scalar tree_4_3_u04_r18_network.client[37] 	downloads[37] 	11765
scalar tree_4_3_u04_r18_network.client[37] 	avg_time[37] 	0.004213134905
scalar tree_4_3_u04_r18_network.client[38] 	hdistance[38] 	2.6847389558233
scalar tree_4_3_u04_r18_network.client[38] 	downloads[38] 	11952
scalar tree_4_3_u04_r18_network.client[38] 	avg_time[38] 	0.004161314222
scalar tree_4_3_u04_r18_network.client[39] 	hdistance[39] 	2.719260426167
scalar tree_4_3_u04_r18_network.client[39] 	downloads[39] 	12061
scalar tree_4_3_u04_r18_network.client[39] 	avg_time[39] 	0.004249356449
