version 2
run General-82-20160902-13:24:42-7280
attr a 0.9
attr cd wfc0.01
attr configname General
attr cr lru
attr datetime 20160902-13:24:42
attr experiment General
attr fsize 1
attr inifile hw5115/scenario_Y/omnetp.ini
attr iterationvars "$name=tree_4_3, $un=04, $rep=3, $cd=wfc0.01, $cr=lru, $fsize=1, $a=0.9, $sl=nrr, $ttl=1000, $variance=0.05"
attr iterationvars2 "$name=tree_4_3, $un=04, $rep=3, $cd=wfc0.01, $cr=lru, $fsize=1, $a=0.9, $sl=nrr, $ttl=1000, $variance=0.05, $repetition=0"
attr measurement "$name=tree_4_3, $un=04, $rep=3, $cd=wfc0.01, $cr=lru, $fsize=1, $a=0.9, $sl=nrr, $ttl=1000, $variance=0.05"
attr name tree_4_3
attr network networks.${name}_u${un}_r${rep}_network
attr processid 7280
attr rep 3
attr repetition 0
attr replication #0
attr resultdir results
attr runnumber 82
attr seedset 3
attr sl nrr
attr ttl 1000
attr un 04
attr variance 0.05

scalar . 	a 	0.9
scalar . 	fsize 	1
scalar . 	rep 	3
scalar . 	ttl 	1000
scalar . 	un 	04
scalar . 	variance 	0.05
scalar tree_4_3_u04_r3_network.content_distribution 	repo-0 	0
scalar tree_4_3_u04_r3_network.content_distribution 	client-0 	13
scalar tree_4_3_u04_r3_network.content_distribution 	client-1 	14
scalar tree_4_3_u04_r3_network.content_distribution 	client-2 	15
scalar tree_4_3_u04_r3_network.content_distribution 	client-3 	16
scalar tree_4_3_u04_r3_network.content_distribution 	client-4 	17
scalar tree_4_3_u04_r3_network.content_distribution 	client-5 	18
scalar tree_4_3_u04_r3_network.content_distribution 	client-6 	19
scalar tree_4_3_u04_r3_network.content_distribution 	client-7 	20
scalar tree_4_3_u04_r3_network.content_distribution 	client-8 	21
scalar tree_4_3_u04_r3_network.content_distribution 	client-9 	22
scalar tree_4_3_u04_r3_network.content_distribution 	client-10 	23
scalar tree_4_3_u04_r3_network.content_distribution 	client-11 	24
scalar tree_4_3_u04_r3_network.content_distribution 	client-12 	25
scalar tree_4_3_u04_r3_network.content_distribution 	client-13 	26
scalar tree_4_3_u04_r3_network.content_distribution 	client-14 	27
scalar tree_4_3_u04_r3_network.content_distribution 	client-15 	28
scalar tree_4_3_u04_r3_network.content_distribution 	client-16 	29
scalar tree_4_3_u04_r3_network.content_distribution 	client-17 	30
scalar tree_4_3_u04_r3_network.content_distribution 	client-18 	31
scalar tree_4_3_u04_r3_network.content_distribution 	client-19 	32
scalar tree_4_3_u04_r3_network.content_distribution 	client-20 	33
scalar tree_4_3_u04_r3_network.content_distribution 	client-21 	34
scalar tree_4_3_u04_r3_network.content_distribution 	client-22 	35
scalar tree_4_3_u04_r3_network.content_distribution 	client-23 	36
scalar tree_4_3_u04_r3_network.content_distribution 	client-24 	37
scalar tree_4_3_u04_r3_network.content_distribution 	client-25 	38
scalar tree_4_3_u04_r3_network.content_distribution 	client-26 	39
scalar tree_4_3_u04_r3_network.content_distribution 	repo-0_card 	100000
scalar tree_4_3_u04_r3_network.content_distribution 	repo-0_price 	0
scalar tree_4_3_u04_r3_network.statistics 	stabilization_time 	1033.2
scalar tree_4_3_u04_r3_network.statistics 	p_hit 	0.22571776584696
scalar tree_4_3_u04_r3_network.statistics 	interests 	25208.275
scalar tree_4_3_u04_r3_network.statistics 	data 	17109.3
scalar tree_4_3_u04_r3_network.statistics 	hdistance 	2.6955518723047
scalar tree_4_3_u04_r3_network.statistics 	avg_time 	0.004225088918
scalar tree_4_3_u04_r3_network.statistics 	downloads 	323951
scalar tree_4_3_u04_r3_network.statistics 	total_cost 	0
scalar tree_4_3_u04_r3_network.statistics 	total_replicas 	100000
scalar tree_4_3_u04_r3_network.statistics 	inner_hit 	0.41702294482808
scalar tree_4_3_u04_r3_network.node[0].core_layer 	interests[0] 	191255
scalar tree_4_3_u04_r3_network.node[0].core_layer 	repo_load[0] 	188856
scalar tree_4_3_u04_r3_network.node[0].core_layer 	data[0] 	0
scalar tree_4_3_u04_r3_network.node[0].core_layer 	repo_int[0] 	188856
scalar tree_4_3_u04_r3_network.node[0].content_store 	p_hit[0] 	0.012543462916002
scalar tree_4_3_u04_r3_network.node[0].content_store 	hits[0] 	2399
scalar tree_4_3_u04_r3_network.node[0].content_store 	misses[0] 	188856
scalar tree_4_3_u04_r3_network.node[0].content_store 	decision_yes[0] 	2763
scalar tree_4_3_u04_r3_network.node[0].content_store 	decision_no[0] 	186093
scalar tree_4_3_u04_r3_network.node[0].content_store 	decision_ratio[0] 	0.014630194433854
scalar tree_4_3_u04_r3_network.node[1].core_layer 	interests[1] 	105611
scalar tree_4_3_u04_r3_network.node[1].core_layer 	data[1] 	103732
scalar tree_4_3_u04_r3_network.node[1].content_store 	p_hit[1] 	0.017772769881925
scalar tree_4_3_u04_r3_network.node[1].content_store 	hits[1] 	1877
scalar tree_4_3_u04_r3_network.node[1].content_store 	misses[1] 	103734
scalar tree_4_3_u04_r3_network.node[1].content_store 	decision_yes[1] 	1182
scalar tree_4_3_u04_r3_network.node[1].content_store 	decision_no[1] 	102550
scalar tree_4_3_u04_r3_network.node[1].content_store 	decision_ratio[1] 	0.011394748004473
scalar tree_4_3_u04_r3_network.node[2].core_layer 	interests[2] 	72882
scalar tree_4_3_u04_r3_network.node[2].core_layer 	data[2] 	70582
scalar tree_4_3_u04_r3_network.node[2].content_store 	p_hit[2] 	0.031557860651464
scalar tree_4_3_u04_r3_network.node[2].content_store 	hits[2] 	2300
scalar tree_4_3_u04_r3_network.node[2].content_store 	misses[2] 	70582
scalar tree_4_3_u04_r3_network.node[2].content_store 	decision_yes[2] 	880
scalar tree_4_3_u04_r3_network.node[2].content_store 	decision_no[2] 	69702
scalar tree_4_3_u04_r3_network.node[2].content_store 	decision_ratio[2] 	0.012467767986172
scalar tree_4_3_u04_r3_network.node[3].core_layer 	interests[3] 	37478
scalar tree_4_3_u04_r3_network.node[3].core_layer 	data[3] 	34443
scalar tree_4_3_u04_r3_network.node[3].content_store 	p_hit[3] 	0.080927477453439
scalar tree_4_3_u04_r3_network.node[3].content_store 	hits[3] 	3033
scalar tree_4_3_u04_r3_network.node[3].content_store 	misses[3] 	34445
scalar tree_4_3_u04_r3_network.node[3].content_store 	decision_yes[3] 	558
scalar tree_4_3_u04_r3_network.node[3].content_store 	decision_no[3] 	33885
scalar tree_4_3_u04_r3_network.node[3].content_store 	decision_ratio[3] 	0.016200679383329
scalar tree_4_3_u04_r3_network.node[4].core_layer 	interests[4] 	43732
scalar tree_4_3_u04_r3_network.node[4].core_layer 	data[4] 	41085
scalar tree_4_3_u04_r3_network.node[4].content_store 	p_hit[4] 	0.060482026891064
scalar tree_4_3_u04_r3_network.node[4].content_store 	hits[4] 	2645
scalar tree_4_3_u04_r3_network.node[4].content_store 	misses[4] 	41087
scalar tree_4_3_u04_r3_network.node[4].content_store 	decision_yes[4] 	548
scalar tree_4_3_u04_r3_network.node[4].content_store 	decision_no[4] 	40537
scalar tree_4_3_u04_r3_network.node[4].content_store 	decision_ratio[4] 	0.013338201290009
scalar tree_4_3_u04_r3_network.node[5].core_layer 	interests[5] 	22320
scalar tree_4_3_u04_r3_network.node[5].core_layer 	data[5] 	18262
scalar tree_4_3_u04_r3_network.node[5].content_store 	p_hit[5] 	0.18181003584229
scalar tree_4_3_u04_r3_network.node[5].content_store 	hits[5] 	4058
scalar tree_4_3_u04_r3_network.node[5].content_store 	misses[5] 	18262
scalar tree_4_3_u04_r3_network.node[5].content_store 	decision_yes[5] 	347
scalar tree_4_3_u04_r3_network.node[5].content_store 	decision_no[5] 	17915
scalar tree_4_3_u04_r3_network.node[5].content_store 	decision_ratio[5] 	0.019001204687329
scalar tree_4_3_u04_r3_network.node[6].core_layer 	interests[6] 	20042
scalar tree_4_3_u04_r3_network.node[6].core_layer 	data[6] 	17752
scalar tree_4_3_u04_r3_network.node[6].content_store 	p_hit[6] 	0.1142101586668
scalar tree_4_3_u04_r3_network.node[6].content_store 	hits[6] 	2289
scalar tree_4_3_u04_r3_network.node[6].content_store 	misses[6] 	17753
scalar tree_4_3_u04_r3_network.node[6].content_store 	decision_yes[6] 	295
scalar tree_4_3_u04_r3_network.node[6].content_store 	decision_no[6] 	17457
scalar tree_4_3_u04_r3_network.node[6].content_store 	decision_ratio[6] 	0.016617845876521
scalar tree_4_3_u04_r3_network.node[7].core_layer 	interests[7] 	28114
scalar tree_4_3_u04_r3_network.node[7].core_layer 	data[7] 	26170
scalar tree_4_3_u04_r3_network.node[7].content_store 	p_hit[7] 	0.069182613644448
scalar tree_4_3_u04_r3_network.node[7].content_store 	hits[7] 	1945
scalar tree_4_3_u04_r3_network.node[7].content_store 	misses[7] 	26169
scalar tree_4_3_u04_r3_network.node[7].content_store 	decision_yes[7] 	381
scalar tree_4_3_u04_r3_network.node[7].content_store 	decision_no[7] 	25789
scalar tree_4_3_u04_r3_network.node[7].content_store 	decision_ratio[7] 	0.014558654948414
scalar tree_4_3_u04_r3_network.node[8].core_layer 	interests[8] 	26835
scalar tree_4_3_u04_r3_network.node[8].core_layer 	data[8] 	24959
scalar tree_4_3_u04_r3_network.node[8].content_store 	p_hit[8] 	0.069908701322899
scalar tree_4_3_u04_r3_network.node[8].content_store 	hits[8] 	1876
scalar tree_4_3_u04_r3_network.node[8].content_store 	misses[8] 	24959
scalar tree_4_3_u04_r3_network.node[8].content_store 	decision_yes[8] 	341
scalar tree_4_3_u04_r3_network.node[8].content_store 	decision_no[8] 	24618
scalar tree_4_3_u04_r3_network.node[8].content_store 	decision_ratio[8] 	0.013662406346408
scalar tree_4_3_u04_r3_network.node[9].core_layer 	interests[9] 	31510
scalar tree_4_3_u04_r3_network.node[9].core_layer 	data[9] 	27919
scalar tree_4_3_u04_r3_network.node[9].content_store 	p_hit[9] 	0.11390034909553
scalar tree_4_3_u04_r3_network.node[9].content_store 	hits[9] 	3589
scalar tree_4_3_u04_r3_network.node[9].content_store 	misses[9] 	27921
scalar tree_4_3_u04_r3_network.node[9].content_store 	decision_yes[9] 	572
scalar tree_4_3_u04_r3_network.node[9].content_store 	decision_no[9] 	27347
scalar tree_4_3_u04_r3_network.node[9].content_store 	decision_ratio[9] 	0.020487839822343
scalar tree_4_3_u04_r3_network.node[10].core_layer 	interests[10] 	47369
scalar tree_4_3_u04_r3_network.node[10].core_layer 	data[10] 	43741
scalar tree_4_3_u04_r3_network.node[10].content_store 	p_hit[10] 	0.076569064155883
scalar tree_4_3_u04_r3_network.node[10].content_store 	hits[10] 	3627
scalar tree_4_3_u04_r3_network.node[10].content_store 	misses[10] 	43742
scalar tree_4_3_u04_r3_network.node[10].content_store 	decision_yes[10] 	791
scalar tree_4_3_u04_r3_network.node[10].content_store 	decision_no[10] 	42950
scalar tree_4_3_u04_r3_network.node[10].content_store 	decision_ratio[10] 	0.018083720079559
scalar tree_4_3_u04_r3_network.node[11].core_layer 	interests[11] 	19242
scalar tree_4_3_u04_r3_network.node[11].core_layer 	data[11] 	17394
scalar tree_4_3_u04_r3_network.node[11].content_store 	p_hit[11] 	0.096039912690988
scalar tree_4_3_u04_r3_network.node[11].content_store 	hits[11] 	1848
scalar tree_4_3_u04_r3_network.node[11].content_store 	misses[11] 	17394
scalar tree_4_3_u04_r3_network.node[11].content_store 	decision_yes[11] 	276
scalar tree_4_3_u04_r3_network.node[11].content_store 	decision_no[11] 	17118
scalar tree_4_3_u04_r3_network.node[11].content_store 	decision_ratio[11] 	0.015867540531218
scalar tree_4_3_u04_r3_network.node[12].core_layer 	interests[12] 	19291
scalar tree_4_3_u04_r3_network.node[12].core_layer 	data[12] 	17381
scalar tree_4_3_u04_r3_network.node[12].content_store 	p_hit[12] 	0.099009900990099
scalar tree_4_3_u04_r3_network.node[12].content_store 	hits[12] 	1910
scalar tree_4_3_u04_r3_network.node[12].content_store 	misses[12] 	17381
scalar tree_4_3_u04_r3_network.node[12].content_store 	decision_yes[12] 	292
scalar tree_4_3_u04_r3_network.node[12].content_store 	decision_no[12] 	17089
scalar tree_4_3_u04_r3_network.node[12].content_store 	decision_ratio[12] 	0.016799953972729
scalar tree_4_3_u04_r3_network.node[13].core_layer 	interests[13] 	12480
scalar tree_4_3_u04_r3_network.node[13].core_layer 	data[13] 	8869
scalar tree_4_3_u04_r3_network.node[13].content_store 	p_hit[13] 	0.28934294871795
scalar tree_4_3_u04_r3_network.node[13].content_store 	hits[13] 	3611
scalar tree_4_3_u04_r3_network.node[13].content_store 	misses[13] 	8869
scalar tree_4_3_u04_r3_network.node[13].content_store 	decision_yes[13] 	116
scalar tree_4_3_u04_r3_network.node[13].content_store 	decision_no[13] 	8753
scalar tree_4_3_u04_r3_network.node[13].content_store 	decision_ratio[13] 	0.013079264855113
scalar tree_4_3_u04_r3_network.node[14].core_layer 	interests[14] 	13068
scalar tree_4_3_u04_r3_network.node[14].core_layer 	data[14] 	8964
scalar tree_4_3_u04_r3_network.node[14].content_store 	p_hit[14] 	0.31404958677686
scalar tree_4_3_u04_r3_network.node[14].content_store 	hits[14] 	4104
scalar tree_4_3_u04_r3_network.node[14].content_store 	misses[14] 	8964
scalar tree_4_3_u04_r3_network.node[14].content_store 	decision_yes[14] 	127
scalar tree_4_3_u04_r3_network.node[14].content_store 	decision_no[14] 	8837
scalar tree_4_3_u04_r3_network.node[14].content_store 	decision_ratio[14] 	0.014167782240071
scalar tree_4_3_u04_r3_network.node[15].core_layer 	interests[15] 	12479
scalar tree_4_3_u04_r3_network.node[15].core_layer 	data[15] 	8919
scalar tree_4_3_u04_r3_network.node[15].content_store 	p_hit[15] 	0.28519913454604
scalar tree_4_3_u04_r3_network.node[15].content_store 	hits[15] 	3559
scalar tree_4_3_u04_r3_network.node[15].content_store 	misses[15] 	8920
scalar tree_4_3_u04_r3_network.node[15].content_store 	decision_yes[15] 	129
scalar tree_4_3_u04_r3_network.node[15].content_store 	decision_no[15] 	8790
scalar tree_4_3_u04_r3_network.node[15].content_store 	decision_ratio[15] 	0.014463504877228
scalar tree_4_3_u04_r3_network.node[16].core_layer 	interests[16] 	13113
scalar tree_4_3_u04_r3_network.node[16].core_layer 	data[16] 	8974
scalar tree_4_3_u04_r3_network.node[16].content_store 	p_hit[16] 	0.31556470677953
scalar tree_4_3_u04_r3_network.node[16].content_store 	hits[16] 	4138
scalar tree_4_3_u04_r3_network.node[16].content_store 	misses[16] 	8975
scalar tree_4_3_u04_r3_network.node[16].content_store 	decision_yes[16] 	123
scalar tree_4_3_u04_r3_network.node[16].content_store 	decision_no[16] 	8851
scalar tree_4_3_u04_r3_network.node[16].content_store 	decision_ratio[16] 	0.013706262536216
scalar tree_4_3_u04_r3_network.node[17].core_layer 	interests[17] 	12285
scalar tree_4_3_u04_r3_network.node[17].core_layer 	data[17] 	8855
scalar tree_4_3_u04_r3_network.node[17].content_store 	p_hit[17] 	0.27920227920228
scalar tree_4_3_u04_r3_network.node[17].content_store 	hits[17] 	3430
scalar tree_4_3_u04_r3_network.node[17].content_store 	misses[17] 	8855
scalar tree_4_3_u04_r3_network.node[17].content_store 	decision_yes[17] 	118
scalar tree_4_3_u04_r3_network.node[17].content_store 	decision_no[17] 	8737
scalar tree_4_3_u04_r3_network.node[17].content_store 	decision_ratio[17] 	0.013325804630152
scalar tree_4_3_u04_r3_network.node[18].core_layer 	interests[18] 	12593
scalar tree_4_3_u04_r3_network.node[18].core_layer 	data[18] 	8652
scalar tree_4_3_u04_r3_network.node[18].content_store 	p_hit[18] 	0.31295163979989
scalar tree_4_3_u04_r3_network.node[18].content_store 	hits[18] 	3941
scalar tree_4_3_u04_r3_network.node[18].content_store 	misses[18] 	8652
scalar tree_4_3_u04_r3_network.node[18].content_store 	decision_yes[18] 	132
scalar tree_4_3_u04_r3_network.node[18].content_store 	decision_no[18] 	8520
scalar tree_4_3_u04_r3_network.node[18].content_store 	decision_ratio[18] 	0.015256588072122
scalar tree_4_3_u04_r3_network.node[19].core_layer 	interests[19] 	13261
scalar tree_4_3_u04_r3_network.node[19].core_layer 	data[19] 	9083
scalar tree_4_3_u04_r3_network.node[19].content_store 	p_hit[19] 	0.31498378704472
scalar tree_4_3_u04_r3_network.node[19].content_store 	hits[19] 	4177
scalar tree_4_3_u04_r3_network.node[19].content_store 	misses[19] 	9084
scalar tree_4_3_u04_r3_network.node[19].content_store 	decision_yes[19] 	154
scalar tree_4_3_u04_r3_network.node[19].content_store 	decision_no[19] 	8929
scalar tree_4_3_u04_r3_network.node[19].content_store 	decision_ratio[19] 	0.016954750633051
scalar tree_4_3_u04_r3_network.node[20].core_layer 	interests[20] 	12324
scalar tree_4_3_u04_r3_network.node[20].core_layer 	data[20] 	8777
scalar tree_4_3_u04_r3_network.node[20].content_store 	p_hit[20] 	0.28781239857189
scalar tree_4_3_u04_r3_network.node[20].content_store 	hits[20] 	3547
scalar tree_4_3_u04_r3_network.node[20].content_store 	misses[20] 	8777
scalar tree_4_3_u04_r3_network.node[20].content_store 	decision_yes[20] 	113
scalar tree_4_3_u04_r3_network.node[20].content_store 	decision_no[20] 	8664
scalar tree_4_3_u04_r3_network.node[20].content_store 	decision_ratio[20] 	0.012874558505184
scalar tree_4_3_u04_r3_network.node[21].core_layer 	interests[21] 	12500
scalar tree_4_3_u04_r3_network.node[21].core_layer 	data[21] 	8966
scalar tree_4_3_u04_r3_network.node[21].content_store 	p_hit[21] 	0.28272
scalar tree_4_3_u04_r3_network.node[21].content_store 	hits[21] 	3534
scalar tree_4_3_u04_r3_network.node[21].content_store 	misses[21] 	8966
scalar tree_4_3_u04_r3_network.node[21].content_store 	decision_yes[21] 	116
scalar tree_4_3_u04_r3_network.node[21].content_store 	decision_no[21] 	8850
scalar tree_4_3_u04_r3_network.node[21].content_store 	decision_ratio[21] 	0.012937764889583
scalar tree_4_3_u04_r3_network.node[22].core_layer 	interests[22] 	12665
scalar tree_4_3_u04_r3_network.node[22].core_layer 	data[22] 	9036
scalar tree_4_3_u04_r3_network.node[22].content_store 	p_hit[22] 	0.28653770232925
scalar tree_4_3_u04_r3_network.node[22].content_store 	hits[22] 	3629
scalar tree_4_3_u04_r3_network.node[22].content_store 	misses[22] 	9036
scalar tree_4_3_u04_r3_network.node[22].content_store 	decision_yes[22] 	102
scalar tree_4_3_u04_r3_network.node[22].content_store 	decision_no[22] 	8934
scalar tree_4_3_u04_r3_network.node[22].content_store 	decision_ratio[22] 	0.01128818061089
scalar tree_4_3_u04_r3_network.node[23].core_layer 	interests[23] 	12557
scalar tree_4_3_u04_r3_network.node[23].core_layer 	data[23] 	8972
scalar tree_4_3_u04_r3_network.node[23].content_store 	p_hit[23] 	0.28557776538982
scalar tree_4_3_u04_r3_network.node[23].content_store 	hits[23] 	3586
scalar tree_4_3_u04_r3_network.node[23].content_store 	misses[23] 	8971
scalar tree_4_3_u04_r3_network.node[23].content_store 	decision_yes[23] 	117
scalar tree_4_3_u04_r3_network.node[23].content_store 	decision_no[23] 	8855
scalar tree_4_3_u04_r3_network.node[23].content_store 	decision_ratio[23] 	0.013040570664289
scalar tree_4_3_u04_r3_network.node[24].core_layer 	interests[24] 	12434
scalar tree_4_3_u04_r3_network.node[24].core_layer 	data[24] 	8794
scalar tree_4_3_u04_r3_network.node[24].content_store 	p_hit[24] 	0.29274569728165
scalar tree_4_3_u04_r3_network.node[24].content_store 	hits[24] 	3640
scalar tree_4_3_u04_r3_network.node[24].content_store 	misses[24] 	8794
scalar tree_4_3_u04_r3_network.node[24].content_store 	decision_yes[24] 	109
scalar tree_4_3_u04_r3_network.node[24].content_store 	decision_no[24] 	8685
scalar tree_4_3_u04_r3_network.node[24].content_store 	decision_ratio[24] 	0.01239481464635
scalar tree_4_3_u04_r3_network.node[25].core_layer 	interests[25] 	12441
scalar tree_4_3_u04_r3_network.node[25].core_layer 	data[25] 	8891
scalar tree_4_3_u04_r3_network.node[25].content_store 	p_hit[25] 	0.28534683707098
scalar tree_4_3_u04_r3_network.node[25].content_store 	hits[25] 	3550
scalar tree_4_3_u04_r3_network.node[25].content_store 	misses[25] 	8891
scalar tree_4_3_u04_r3_network.node[25].content_store 	decision_yes[25] 	113
scalar tree_4_3_u04_r3_network.node[25].content_store 	decision_no[25] 	8778
scalar tree_4_3_u04_r3_network.node[25].content_store 	decision_ratio[25] 	0.012709481498144
scalar tree_4_3_u04_r3_network.node[26].core_layer 	interests[26] 	12320
scalar tree_4_3_u04_r3_network.node[26].core_layer 	data[26] 	8796
scalar tree_4_3_u04_r3_network.node[26].content_store 	p_hit[26] 	0.28603896103896
scalar tree_4_3_u04_r3_network.node[26].content_store 	hits[26] 	3524
scalar tree_4_3_u04_r3_network.node[26].content_store 	misses[26] 	8796
scalar tree_4_3_u04_r3_network.node[26].content_store 	decision_yes[26] 	117
scalar tree_4_3_u04_r3_network.node[26].content_store 	decision_no[26] 	8679
scalar tree_4_3_u04_r3_network.node[26].content_store 	decision_ratio[26] 	0.013301500682128
scalar tree_4_3_u04_r3_network.node[27].core_layer 	interests[27] 	13199
scalar tree_4_3_u04_r3_network.node[27].core_layer 	data[27] 	8971
scalar tree_4_3_u04_r3_network.node[27].content_store 	p_hit[27] 	0.32032729752254
scalar tree_4_3_u04_r3_network.node[27].content_store 	hits[27] 	4228
scalar tree_4_3_u04_r3_network.node[27].content_store 	misses[27] 	8971
scalar tree_4_3_u04_r3_network.node[27].content_store 	decision_yes[27] 	114
scalar tree_4_3_u04_r3_network.node[27].content_store 	decision_no[27] 	8857
scalar tree_4_3_u04_r3_network.node[27].content_store 	decision_ratio[27] 	0.012707613421023
scalar tree_4_3_u04_r3_network.node[28].core_layer 	interests[28] 	12696
scalar tree_4_3_u04_r3_network.node[28].core_layer 	data[28] 	8944
scalar tree_4_3_u04_r3_network.node[28].content_store 	p_hit[28] 	0.29544738500315
scalar tree_4_3_u04_r3_network.node[28].content_store 	hits[28] 	3751
scalar tree_4_3_u04_r3_network.node[28].content_store 	misses[28] 	8945
scalar tree_4_3_u04_r3_network.node[28].content_store 	decision_yes[28] 	114
scalar tree_4_3_u04_r3_network.node[28].content_store 	decision_no[28] 	8830
scalar tree_4_3_u04_r3_network.node[28].content_store 	decision_ratio[28] 	0.012745974955277
scalar tree_4_3_u04_r3_network.node[29].core_layer 	interests[29] 	12920
scalar tree_4_3_u04_r3_network.node[29].core_layer 	data[29] 	9047
scalar tree_4_3_u04_r3_network.node[29].content_store 	p_hit[29] 	0.29976780185759
scalar tree_4_3_u04_r3_network.node[29].content_store 	hits[29] 	3873
scalar tree_4_3_u04_r3_network.node[29].content_store 	misses[29] 	9047
scalar tree_4_3_u04_r3_network.node[29].content_store 	decision_yes[29] 	102
scalar tree_4_3_u04_r3_network.node[29].content_store 	decision_no[29] 	8945
scalar tree_4_3_u04_r3_network.node[29].content_store 	decision_ratio[29] 	0.011274455620648
scalar tree_4_3_u04_r3_network.node[30].core_layer 	interests[30] 	12973
scalar tree_4_3_u04_r3_network.node[30].core_layer 	data[30] 	9125
scalar tree_4_3_u04_r3_network.node[30].content_store 	p_hit[30] 	0.29653896554382
scalar tree_4_3_u04_r3_network.node[30].content_store 	hits[30] 	3847
scalar tree_4_3_u04_r3_network.node[30].content_store 	misses[30] 	9126
scalar tree_4_3_u04_r3_network.node[30].content_store 	decision_yes[30] 	118
scalar tree_4_3_u04_r3_network.node[30].content_store 	decision_no[30] 	9007
scalar tree_4_3_u04_r3_network.node[30].content_store 	decision_ratio[30] 	0.012931506849315
scalar tree_4_3_u04_r3_network.node[31].core_layer 	interests[31] 	12774
scalar tree_4_3_u04_r3_network.node[31].core_layer 	data[31] 	8821
scalar tree_4_3_u04_r3_network.node[31].content_store 	p_hit[31] 	0.30945670894003
scalar tree_4_3_u04_r3_network.node[31].content_store 	hits[31] 	3953
scalar tree_4_3_u04_r3_network.node[31].content_store 	misses[31] 	8821
scalar tree_4_3_u04_r3_network.node[31].content_store 	decision_yes[31] 	109
scalar tree_4_3_u04_r3_network.node[31].content_store 	decision_no[31] 	8712
scalar tree_4_3_u04_r3_network.node[31].content_store 	decision_ratio[31] 	0.012356875637683
scalar tree_4_3_u04_r3_network.node[32].core_layer 	interests[32] 	12813
scalar tree_4_3_u04_r3_network.node[32].core_layer 	data[32] 	8940
scalar tree_4_3_u04_r3_network.node[32].content_store 	p_hit[32] 	0.3022711308827
scalar tree_4_3_u04_r3_network.node[32].content_store 	hits[32] 	3873
scalar tree_4_3_u04_r3_network.node[32].content_store 	misses[32] 	8940
scalar tree_4_3_u04_r3_network.node[32].content_store 	decision_yes[32] 	110
scalar tree_4_3_u04_r3_network.node[32].content_store 	decision_no[32] 	8830
scalar tree_4_3_u04_r3_network.node[32].content_store 	decision_ratio[32] 	0.012304250559284
scalar tree_4_3_u04_r3_network.node[33].core_layer 	interests[33] 	12842
scalar tree_4_3_u04_r3_network.node[33].core_layer 	data[33] 	9027
scalar tree_4_3_u04_r3_network.node[33].content_store 	p_hit[33] 	0.29707210714842
scalar tree_4_3_u04_r3_network.node[33].content_store 	hits[33] 	3815
scalar tree_4_3_u04_r3_network.node[33].content_store 	misses[33] 	9027
scalar tree_4_3_u04_r3_network.node[33].content_store 	decision_yes[33] 	116
scalar tree_4_3_u04_r3_network.node[33].content_store 	decision_no[33] 	8911
scalar tree_4_3_u04_r3_network.node[33].content_store 	decision_ratio[33] 	0.012850337875263
scalar tree_4_3_u04_r3_network.node[34].core_layer 	interests[34] 	13118
scalar tree_4_3_u04_r3_network.node[34].core_layer 	data[34] 	8987
scalar tree_4_3_u04_r3_network.node[34].content_store 	p_hit[34] 	0.31491080957463
scalar tree_4_3_u04_r3_network.node[34].content_store 	hits[34] 	4131
scalar tree_4_3_u04_r3_network.node[34].content_store 	misses[34] 	8987
scalar tree_4_3_u04_r3_network.node[34].content_store 	decision_yes[34] 	141
scalar tree_4_3_u04_r3_network.node[34].content_store 	decision_no[34] 	8846
scalar tree_4_3_u04_r3_network.node[34].content_store 	decision_ratio[34] 	0.015689329030822
scalar tree_4_3_u04_r3_network.node[35].core_layer 	interests[35] 	12508
scalar tree_4_3_u04_r3_network.node[35].core_layer 	data[35] 	9000
scalar tree_4_3_u04_r3_network.node[35].content_store 	p_hit[35] 	0.28046050527662
scalar tree_4_3_u04_r3_network.node[35].content_store 	hits[35] 	3508
scalar tree_4_3_u04_r3_network.node[35].content_store 	misses[35] 	9000
scalar tree_4_3_u04_r3_network.node[35].content_store 	decision_yes[35] 	126
scalar tree_4_3_u04_r3_network.node[35].content_store 	decision_no[35] 	8874
scalar tree_4_3_u04_r3_network.node[35].content_store 	decision_ratio[35] 	0.014
scalar tree_4_3_u04_r3_network.node[36].core_layer 	interests[36] 	12188
scalar tree_4_3_u04_r3_network.node[36].core_layer 	data[36] 	8716
scalar tree_4_3_u04_r3_network.node[36].content_store 	p_hit[36] 	0.28478831637676
scalar tree_4_3_u04_r3_network.node[36].content_store 	hits[36] 	3471
scalar tree_4_3_u04_r3_network.node[36].content_store 	misses[36] 	8717
scalar tree_4_3_u04_r3_network.node[36].content_store 	decision_yes[36] 	114
scalar tree_4_3_u04_r3_network.node[36].content_store 	decision_no[36] 	8602
scalar tree_4_3_u04_r3_network.node[36].content_store 	decision_ratio[36] 	0.013079394217531
scalar tree_4_3_u04_r3_network.node[37].core_layer 	interests[37] 	13405
scalar tree_4_3_u04_r3_network.node[37].core_layer 	data[37] 	9140
scalar tree_4_3_u04_r3_network.node[37].content_store 	p_hit[37] 	0.31816486385677
scalar tree_4_3_u04_r3_network.node[37].content_store 	hits[37] 	4265
scalar tree_4_3_u04_r3_network.node[37].content_store 	misses[37] 	9140
scalar tree_4_3_u04_r3_network.node[37].content_store 	decision_yes[37] 	124
scalar tree_4_3_u04_r3_network.node[37].content_store 	decision_no[37] 	9016
scalar tree_4_3_u04_r3_network.node[37].content_store 	decision_ratio[37] 	0.013566739606127
scalar tree_4_3_u04_r3_network.node[38].core_layer 	interests[38] 	12296
scalar tree_4_3_u04_r3_network.node[38].core_layer 	data[38] 	8790
scalar tree_4_3_u04_r3_network.node[38].content_store 	p_hit[38] 	0.28505204944697
scalar tree_4_3_u04_r3_network.node[38].content_store 	hits[38] 	3505
scalar tree_4_3_u04_r3_network.node[38].content_store 	misses[38] 	8791
scalar tree_4_3_u04_r3_network.node[38].content_store 	decision_yes[38] 	119
scalar tree_4_3_u04_r3_network.node[38].content_store 	decision_no[38] 	8671
scalar tree_4_3_u04_r3_network.node[38].content_store 	decision_ratio[38] 	0.01353811149033
scalar tree_4_3_u04_r3_network.node[39].core_layer 	interests[39] 	12398
scalar tree_4_3_u04_r3_network.node[39].core_layer 	data[39] 	8896
scalar tree_4_3_u04_r3_network.node[39].content_store 	p_hit[39] 	0.28246491369576
scalar tree_4_3_u04_r3_network.node[39].content_store 	hits[39] 	3502
scalar tree_4_3_u04_r3_network.node[39].content_store 	misses[39] 	8896
scalar tree_4_3_u04_r3_network.node[39].content_store 	decision_yes[39] 	115
scalar tree_4_3_u04_r3_network.node[39].content_store 	decision_no[39] 	8781
scalar tree_4_3_u04_r3_network.node[39].content_store 	decision_ratio[39] 	0.012927158273381
scalar tree_4_3_u04_r3_network.client[13] 	hdistance[13] 	2.7040388805095
scalar tree_4_3_u04_r3_network.client[13] 	downloads[13] 	11934
scalar tree_4_3_u04_r3_network.client[13] 	avg_time[13] 	0.004228587596
scalar tree_4_3_u04_r3_network.client[14] 	hdistance[14] 	2.6426604356171
scalar tree_4_3_u04_r3_network.client[14] 	downloads[14] 	11983
scalar tree_4_3_u04_r3_network.client[14] 	avg_time[14] 	0.004155383791
scalar tree_4_3_u04_r3_network.client[15] 	hdistance[15] 	2.7395474047278
scalar tree_4_3_u04_r3_network.client[15] 	downloads[15] 	11887
scalar tree_4_3_u04_r3_network.client[15] 	avg_time[15] 	0.004280976235
scalar tree_4_3_u04_r3_network.client[16] 	hdistance[16] 	2.6170459247
scalar tree_4_3_u04_r3_network.client[16] 	downloads[16] 	12085
scalar tree_4_3_u04_r3_network.client[16] 	avg_time[16] 	0.004105207214
scalar tree_4_3_u04_r3_network.client[17] 	hdistance[17] 	2.6984167087755
scalar tree_4_3_u04_r3_network.client[17] 	downloads[17] 	11874
scalar tree_4_3_u04_r3_network.client[17] 	avg_time[17] 	0.004269324958
scalar tree_4_3_u04_r3_network.client[18] 	hdistance[18] 	2.6208429511841
scalar tree_4_3_u04_r3_network.client[18] 	downloads[18] 	11697
scalar tree_4_3_u04_r3_network.client[18] 	avg_time[18] 	0.004121737658
scalar tree_4_3_u04_r3_network.client[19] 	hdistance[19] 	2.6643057156976
scalar tree_4_3_u04_r3_network.client[19] 	downloads[19] 	12142
scalar tree_4_3_u04_r3_network.client[19] 	avg_time[19] 	0.004142624316
scalar tree_4_3_u04_r3_network.client[20] 	hdistance[20] 	2.7126224976966
scalar tree_4_3_u04_r3_network.client[20] 	downloads[20] 	11939
scalar tree_4_3_u04_r3_network.client[20] 	avg_time[20] 	0.004235193214
scalar tree_4_3_u04_r3_network.client[21] 	hdistance[21] 	2.7369944586883
scalar tree_4_3_u04_r3_network.client[21] 	downloads[21] 	12091
scalar tree_4_3_u04_r3_network.client[21] 	avg_time[21] 	0.004273818044
scalar tree_4_3_u04_r3_network.client[22] 	hdistance[22] 	2.7513580246914
scalar tree_4_3_u04_r3_network.client[22] 	downloads[22] 	12150
scalar tree_4_3_u04_r3_network.client[22] 	avg_time[22] 	0.004295799421
scalar tree_4_3_u04_r3_network.client[23] 	hdistance[23] 	2.7371291628791
scalar tree_4_3_u04_r3_network.client[23] 	downloads[23] 	12101
scalar tree_4_3_u04_r3_network.client[23] 	avg_time[23] 	0.00427451973
scalar tree_4_3_u04_r3_network.client[24] 	hdistance[24] 	2.7221661621258
scalar tree_4_3_u04_r3_network.client[24] 	downloads[24] 	11892
scalar tree_4_3_u04_r3_network.client[24] 	avg_time[24] 	0.004256471968
scalar tree_4_3_u04_r3_network.client[25] 	hdistance[25] 	2.7349066044029
scalar tree_4_3_u04_r3_network.client[25] 	downloads[25] 	11992
scalar tree_4_3_u04_r3_network.client[25] 	avg_time[25] 	0.004272678764
scalar tree_4_3_u04_r3_network.client[26] 	hdistance[26] 	2.720375965089
scalar tree_4_3_u04_r3_network.client[26] 	downloads[26] 	11916
scalar tree_4_3_u04_r3_network.client[26] 	avg_time[26] 	0.004251088
scalar tree_4_3_u04_r3_network.client[27] 	hdistance[27] 	2.6549336892151
scalar tree_4_3_u04_r3_network.client[27] 	downloads[27] 	11989
scalar tree_4_3_u04_r3_network.client[27] 	avg_time[27] 	0.004171988048
scalar tree_4_3_u04_r3_network.client[28] 	hdistance[28] 	2.6835464193198
scalar tree_4_3_u04_r3_network.client[28] 	downloads[28] 	11967
scalar tree_4_3_u04_r3_network.client[28] 	avg_time[28] 	0.004232351752
scalar tree_4_3_u04_r3_network.client[29] 	hdistance[29] 	2.6988954830201
scalar tree_4_3_u04_r3_network.client[29] 	downloads[29] 	12132
scalar tree_4_3_u04_r3_network.client[29] 	avg_time[29] 	0.004251773005
scalar tree_4_3_u04_r3_network.client[30] 	hdistance[30] 	2.6913054167008
scalar tree_4_3_u04_r3_network.client[30] 	downloads[30] 	12203
scalar tree_4_3_u04_r3_network.client[30] 	avg_time[30] 	0.004235512808
scalar tree_4_3_u04_r3_network.client[31] 	hdistance[31] 	2.6719630096679
scalar tree_4_3_u04_r3_network.client[31] 	downloads[31] 	11895
scalar tree_4_3_u04_r3_network.client[31] 	avg_time[31] 	0.00420562963
scalar tree_4_3_u04_r3_network.client[32] 	hdistance[32] 	2.6812609457093
scalar tree_4_3_u04_r3_network.client[32] 	downloads[32] 	11991
scalar tree_4_3_u04_r3_network.client[32] 	avg_time[32] 	0.004226500229
scalar tree_4_3_u04_r3_network.client[33] 	hdistance[33] 	2.6907697434189
scalar tree_4_3_u04_r3_network.client[33] 	downloads[33] 	12004
scalar tree_4_3_u04_r3_network.client[33] 	avg_time[33] 	0.00425042919
scalar tree_4_3_u04_r3_network.client[34] 	hdistance[34] 	2.6403764470725
scalar tree_4_3_u04_r3_network.client[34] 	downloads[34] 	12007
scalar tree_4_3_u04_r3_network.client[34] 	avg_time[34] 	0.004148077313
scalar tree_4_3_u04_r3_network.client[35] 	hdistance[35] 	2.7372148562958
scalar tree_4_3_u04_r3_network.client[35] 	downloads[35] 	12143
scalar tree_4_3_u04_r3_network.client[35] 	avg_time[35] 	0.004269287953
scalar tree_4_3_u04_r3_network.client[36] 	hdistance[36] 	2.7189950257145
scalar tree_4_3_u04_r3_network.client[36] 	downloads[36] 	11861
scalar tree_4_3_u04_r3_network.client[36] 	avg_time[36] 	0.004243949974
scalar tree_4_3_u04_r3_network.client[37] 	hdistance[37] 	2.6574462830329
scalar tree_4_3_u04_r3_network.client[37] 	downloads[37] 	12147
scalar tree_4_3_u04_r3_network.client[37] 	avg_time[37] 	0.004178641867
scalar tree_4_3_u04_r3_network.client[38] 	hdistance[38] 	2.7325884230866
scalar tree_4_3_u04_r3_network.client[38] 	downloads[38] 	11903
scalar tree_4_3_u04_r3_network.client[38] 	avg_time[38] 	0.004252719945
scalar tree_4_3_u04_r3_network.client[39] 	hdistance[39] 	2.7181939131881
scalar tree_4_3_u04_r3_network.client[39] 	downloads[39] 	12026
scalar tree_4_3_u04_r3_network.client[39] 	avg_time[39] 	0.004247128179
