version 2
run General-93-20160902-13:42:44-7280
attr a 0.9
attr cd wfc0.01
attr configname General
attr cr lru
attr datetime 20160902-13:42:44
attr experiment General
attr fsize 1
attr inifile hw5115/scenario_Y/omnetp.ini
attr iterationvars "$name=tree_4_3, $un=04, $rep=14, $cd=wfc0.01, $cr=lru, $fsize=1, $a=0.9, $sl=nrr, $ttl=1000, $variance=0.05"
attr iterationvars2 "$name=tree_4_3, $un=04, $rep=14, $cd=wfc0.01, $cr=lru, $fsize=1, $a=0.9, $sl=nrr, $ttl=1000, $variance=0.05, $repetition=0"
attr measurement "$name=tree_4_3, $un=04, $rep=14, $cd=wfc0.01, $cr=lru, $fsize=1, $a=0.9, $sl=nrr, $ttl=1000, $variance=0.05"
attr name tree_4_3
attr network networks.${name}_u${un}_r${rep}_network
attr processid 7280
attr rep 14
attr repetition 0
attr replication #0
attr resultdir results
attr runnumber 93
attr seedset 14
attr sl nrr
attr ttl 1000
attr un 04
attr variance 0.05

scalar . 	a 	0.9
scalar . 	fsize 	1
scalar . 	rep 	14
scalar . 	ttl 	1000
scalar . 	un 	04
scalar . 	variance 	0.05
scalar tree_4_3_u04_r14_network.content_distribution 	repo-0 	0
scalar tree_4_3_u04_r14_network.content_distribution 	client-0 	13
scalar tree_4_3_u04_r14_network.content_distribution 	client-1 	14
scalar tree_4_3_u04_r14_network.content_distribution 	client-2 	15
scalar tree_4_3_u04_r14_network.content_distribution 	client-3 	16
scalar tree_4_3_u04_r14_network.content_distribution 	client-4 	17
scalar tree_4_3_u04_r14_network.content_distribution 	client-5 	18
scalar tree_4_3_u04_r14_network.content_distribution 	client-6 	19
scalar tree_4_3_u04_r14_network.content_distribution 	client-7 	20
scalar tree_4_3_u04_r14_network.content_distribution 	client-8 	21
scalar tree_4_3_u04_r14_network.content_distribution 	client-9 	22
scalar tree_4_3_u04_r14_network.content_distribution 	client-10 	23
scalar tree_4_3_u04_r14_network.content_distribution 	client-11 	24
scalar tree_4_3_u04_r14_network.content_distribution 	client-12 	25
scalar tree_4_3_u04_r14_network.content_distribution 	client-13 	26
scalar tree_4_3_u04_r14_network.content_distribution 	client-14 	27
scalar tree_4_3_u04_r14_network.content_distribution 	client-15 	28
scalar tree_4_3_u04_r14_network.content_distribution 	client-16 	29
scalar tree_4_3_u04_r14_network.content_distribution 	client-17 	30
scalar tree_4_3_u04_r14_network.content_distribution 	client-18 	31
scalar tree_4_3_u04_r14_network.content_distribution 	client-19 	32
scalar tree_4_3_u04_r14_network.content_distribution 	client-20 	33
scalar tree_4_3_u04_r14_network.content_distribution 	client-21 	34
scalar tree_4_3_u04_r14_network.content_distribution 	client-22 	35
scalar tree_4_3_u04_r14_network.content_distribution 	client-23 	36
scalar tree_4_3_u04_r14_network.content_distribution 	client-24 	37
scalar tree_4_3_u04_r14_network.content_distribution 	client-25 	38
scalar tree_4_3_u04_r14_network.content_distribution 	client-26 	39
scalar tree_4_3_u04_r14_network.content_distribution 	repo-0_card 	100000
scalar tree_4_3_u04_r14_network.content_distribution 	repo-0_price 	0
scalar tree_4_3_u04_r14_network.statistics 	stabilization_time 	1083.8
scalar tree_4_3_u04_r14_network.statistics 	p_hit 	0.22551584571019
scalar tree_4_3_u04_r14_network.statistics 	interests 	25279.2
scalar tree_4_3_u04_r14_network.statistics 	data 	17181.825
scalar tree_4_3_u04_r14_network.statistics 	hdistance 	2.6992609812259
scalar tree_4_3_u04_r14_network.statistics 	avg_time 	0.004243751318
scalar tree_4_3_u04_r14_network.statistics 	downloads 	323892
scalar tree_4_3_u04_r14_network.statistics 	total_cost 	0
scalar tree_4_3_u04_r14_network.statistics 	total_replicas 	100000
scalar tree_4_3_u04_r14_network.statistics 	inner_hit 	0.42259456855989
scalar tree_4_3_u04_r14_network.node[0].core_layer 	interests[0] 	189267
scalar tree_4_3_u04_r14_network.node[0].core_layer 	repo_load[0] 	187017
scalar tree_4_3_u04_r14_network.node[0].core_layer 	data[0] 	0
scalar tree_4_3_u04_r14_network.node[0].core_layer 	repo_int[0] 	187017
scalar tree_4_3_u04_r14_network.node[0].content_store 	p_hit[0] 	0.011887967791533
scalar tree_4_3_u04_r14_network.node[0].content_store 	hits[0] 	2250
scalar tree_4_3_u04_r14_network.node[0].content_store 	misses[0] 	187017
scalar tree_4_3_u04_r14_network.node[0].content_store 	decision_yes[0] 	2747
scalar tree_4_3_u04_r14_network.node[0].content_store 	decision_no[0] 	184270
scalar tree_4_3_u04_r14_network.node[0].content_store 	decision_ratio[0] 	0.014688504253624
scalar tree_4_3_u04_r14_network.node[1].core_layer 	interests[1] 	121290
scalar tree_4_3_u04_r14_network.node[1].core_layer 	data[1] 	119069
scalar tree_4_3_u04_r14_network.node[1].content_store 	p_hit[1] 	0.018286750762635
scalar tree_4_3_u04_r14_network.node[1].content_store 	hits[1] 	2218
scalar tree_4_3_u04_r14_network.node[1].content_store 	misses[1] 	119072
scalar tree_4_3_u04_r14_network.node[1].content_store 	decision_yes[1] 	1430
scalar tree_4_3_u04_r14_network.node[1].content_store 	decision_no[1] 	117638
scalar tree_4_3_u04_r14_network.node[1].content_store 	decision_ratio[1] 	0.012009943897605
scalar tree_4_3_u04_r14_network.node[2].core_layer 	interests[2] 	40618
scalar tree_4_3_u04_r14_network.node[2].core_layer 	data[2] 	38973
scalar tree_4_3_u04_r14_network.node[2].content_store 	p_hit[2] 	0.040499286030824
scalar tree_4_3_u04_r14_network.node[2].content_store 	hits[2] 	1645
scalar tree_4_3_u04_r14_network.node[2].content_store 	misses[2] 	38973
scalar tree_4_3_u04_r14_network.node[2].content_store 	decision_yes[2] 	512
scalar tree_4_3_u04_r14_network.node[2].content_store 	decision_no[2] 	38461
scalar tree_4_3_u04_r14_network.node[2].content_store 	decision_ratio[2] 	0.013137300182177
scalar tree_4_3_u04_r14_network.node[3].core_layer 	interests[3] 	55484
scalar tree_4_3_u04_r14_network.node[3].core_layer 	data[3] 	51766
scalar tree_4_3_u04_r14_network.node[3].content_store 	p_hit[3] 	0.067010309278351
scalar tree_4_3_u04_r14_network.node[3].content_store 	hits[3] 	3718
scalar tree_4_3_u04_r14_network.node[3].content_store 	misses[3] 	51766
scalar tree_4_3_u04_r14_network.node[3].content_store 	decision_yes[3] 	878
scalar tree_4_3_u04_r14_network.node[3].content_store 	decision_no[3] 	50888
scalar tree_4_3_u04_r14_network.node[3].content_store 	decision_ratio[3] 	0.016960939612873
scalar tree_4_3_u04_r14_network.node[4].core_layer 	interests[4] 	34847
scalar tree_4_3_u04_r14_network.node[4].core_layer 	data[4] 	32531
scalar tree_4_3_u04_r14_network.node[4].content_store 	p_hit[4] 	0.066461962292306
scalar tree_4_3_u04_r14_network.node[4].content_store 	hits[4] 	2316
scalar tree_4_3_u04_r14_network.node[4].content_store 	misses[4] 	32531
scalar tree_4_3_u04_r14_network.node[4].content_store 	decision_yes[4] 	433
scalar tree_4_3_u04_r14_network.node[4].content_store 	decision_no[4] 	32098
scalar tree_4_3_u04_r14_network.node[4].content_store 	decision_ratio[4] 	0.01331038086748
scalar tree_4_3_u04_r14_network.node[5].core_layer 	interests[5] 	28647
scalar tree_4_3_u04_r14_network.node[5].core_layer 	data[5] 	25857
scalar tree_4_3_u04_r14_network.node[5].content_store 	p_hit[5] 	0.097392397109645
scalar tree_4_3_u04_r14_network.node[5].content_store 	hits[5] 	2790
scalar tree_4_3_u04_r14_network.node[5].content_store 	misses[5] 	25857
scalar tree_4_3_u04_r14_network.node[5].content_store 	decision_yes[5] 	413
scalar tree_4_3_u04_r14_network.node[5].content_store 	decision_no[5] 	25444
scalar tree_4_3_u04_r14_network.node[5].content_store 	decision_ratio[5] 	0.015972463936265
scalar tree_4_3_u04_r14_network.node[6].core_layer 	interests[6] 	23409
scalar tree_4_3_u04_r14_network.node[6].core_layer 	data[6] 	19503
scalar tree_4_3_u04_r14_network.node[6].content_store 	p_hit[6] 	0.16685890042291
scalar tree_4_3_u04_r14_network.node[6].content_store 	hits[6] 	3906
scalar tree_4_3_u04_r14_network.node[6].content_store 	misses[6] 	19503
scalar tree_4_3_u04_r14_network.node[6].content_store 	decision_yes[6] 	433
scalar tree_4_3_u04_r14_network.node[6].content_store 	decision_no[6] 	19070
scalar tree_4_3_u04_r14_network.node[6].content_store 	decision_ratio[6] 	0.022201712557043
scalar tree_4_3_u04_r14_network.node[7].core_layer 	interests[7] 	37520
scalar tree_4_3_u04_r14_network.node[7].core_layer 	data[7] 	34219
scalar tree_4_3_u04_r14_network.node[7].content_store 	p_hit[7] 	0.087979744136461
scalar tree_4_3_u04_r14_network.node[7].content_store 	hits[7] 	3301
scalar tree_4_3_u04_r14_network.node[7].content_store 	misses[7] 	34219
scalar tree_4_3_u04_r14_network.node[7].content_store 	decision_yes[7] 	599
scalar tree_4_3_u04_r14_network.node[7].content_store 	decision_no[7] 	33620
scalar tree_4_3_u04_r14_network.node[7].content_store 	decision_ratio[7] 	0.017504894941407
scalar tree_4_3_u04_r14_network.node[8].core_layer 	interests[8] 	28169
scalar tree_4_3_u04_r14_network.node[8].core_layer 	data[8] 	26121
scalar tree_4_3_u04_r14_network.node[8].content_store 	p_hit[8] 	0.072704036352018
scalar tree_4_3_u04_r14_network.node[8].content_store 	hits[8] 	2048
scalar tree_4_3_u04_r14_network.node[8].content_store 	misses[8] 	26121
scalar tree_4_3_u04_r14_network.node[8].content_store 	decision_yes[8] 	394
scalar tree_4_3_u04_r14_network.node[8].content_store 	decision_no[8] 	25727
scalar tree_4_3_u04_r14_network.node[8].content_store 	decision_ratio[8] 	0.015083649171165
scalar tree_4_3_u04_r14_network.node[9].core_layer 	interests[9] 	21751
scalar tree_4_3_u04_r14_network.node[9].core_layer 	data[9] 	18360
scalar tree_4_3_u04_r14_network.node[9].content_store 	p_hit[9] 	0.15585490322284
scalar tree_4_3_u04_r14_network.node[9].content_store 	hits[9] 	3390
scalar tree_4_3_u04_r14_network.node[9].content_store 	misses[9] 	18361
scalar tree_4_3_u04_r14_network.node[9].content_store 	decision_yes[9] 	379
scalar tree_4_3_u04_r14_network.node[9].content_store 	decision_no[9] 	17981
scalar tree_4_3_u04_r14_network.node[9].content_store 	decision_ratio[9] 	0.020642701525054
scalar tree_4_3_u04_r14_network.node[10].core_layer 	interests[10] 	30534
scalar tree_4_3_u04_r14_network.node[10].core_layer 	data[10] 	26863
scalar tree_4_3_u04_r14_network.node[10].content_store 	p_hit[10] 	0.12019388222965
scalar tree_4_3_u04_r14_network.node[10].content_store 	hits[10] 	3670
scalar tree_4_3_u04_r14_network.node[10].content_store 	misses[10] 	26864
scalar tree_4_3_u04_r14_network.node[10].content_store 	decision_yes[10] 	461
scalar tree_4_3_u04_r14_network.node[10].content_store 	decision_no[10] 	26402
scalar tree_4_3_u04_r14_network.node[10].content_store 	decision_ratio[10] 	0.017161151025574
scalar tree_4_3_u04_r14_network.node[11].core_layer 	interests[11] 	28579
scalar tree_4_3_u04_r14_network.node[11].core_layer 	data[11] 	26316
scalar tree_4_3_u04_r14_network.node[11].content_store 	p_hit[11] 	0.079079044053326
scalar tree_4_3_u04_r14_network.node[11].content_store 	hits[11] 	2260
scalar tree_4_3_u04_r14_network.node[11].content_store 	misses[11] 	26319
scalar tree_4_3_u04_r14_network.node[11].content_store 	decision_yes[11] 	391
scalar tree_4_3_u04_r14_network.node[11].content_store 	decision_no[11] 	25925
scalar tree_4_3_u04_r14_network.node[11].content_store 	decision_ratio[11] 	0.014857881136951
scalar tree_4_3_u04_r14_network.node[12].core_layer 	interests[12] 	28580
scalar tree_4_3_u04_r14_network.node[12].core_layer 	data[12] 	26200
scalar tree_4_3_u04_r14_network.node[12].content_store 	p_hit[12] 	0.083275017494752
scalar tree_4_3_u04_r14_network.node[12].content_store 	hits[12] 	2380
scalar tree_4_3_u04_r14_network.node[12].content_store 	misses[12] 	26200
scalar tree_4_3_u04_r14_network.node[12].content_store 	decision_yes[12] 	378
scalar tree_4_3_u04_r14_network.node[12].content_store 	decision_no[12] 	25822
scalar tree_4_3_u04_r14_network.node[12].content_store 	decision_ratio[12] 	0.014427480916031
scalar tree_4_3_u04_r14_network.node[13].core_layer 	interests[13] 	12394
scalar tree_4_3_u04_r14_network.node[13].core_layer 	data[13] 	8918
scalar tree_4_3_u04_r14_network.node[13].content_store 	p_hit[13] 	0.28045828626755
scalar tree_4_3_u04_r14_network.node[13].content_store 	hits[13] 	3476
scalar tree_4_3_u04_r14_network.node[13].content_store 	misses[13] 	8918
scalar tree_4_3_u04_r14_network.node[13].content_store 	decision_yes[13] 	124
scalar tree_4_3_u04_r14_network.node[13].content_store 	decision_no[13] 	8794
scalar tree_4_3_u04_r14_network.node[13].content_store 	decision_ratio[13] 	0.013904462884055
scalar tree_4_3_u04_r14_network.node[14].core_layer 	interests[14] 	12892
scalar tree_4_3_u04_r14_network.node[14].core_layer 	data[14] 	8792
scalar tree_4_3_u04_r14_network.node[14].content_store 	p_hit[14] 	0.3180266832144
scalar tree_4_3_u04_r14_network.node[14].content_store 	hits[14] 	4100
scalar tree_4_3_u04_r14_network.node[14].content_store 	misses[14] 	8792
scalar tree_4_3_u04_r14_network.node[14].content_store 	decision_yes[14] 	118
scalar tree_4_3_u04_r14_network.node[14].content_store 	decision_no[14] 	8674
scalar tree_4_3_u04_r14_network.node[14].content_store 	decision_ratio[14] 	0.013421292083712
scalar tree_4_3_u04_r14_network.node[15].core_layer 	interests[15] 	13124
scalar tree_4_3_u04_r14_network.node[15].core_layer 	data[15] 	8894
scalar tree_4_3_u04_r14_network.node[15].content_store 	p_hit[15] 	0.32231027125876
scalar tree_4_3_u04_r14_network.node[15].content_store 	hits[15] 	4230
scalar tree_4_3_u04_r14_network.node[15].content_store 	misses[15] 	8894
scalar tree_4_3_u04_r14_network.node[15].content_store 	decision_yes[15] 	123
scalar tree_4_3_u04_r14_network.node[15].content_store 	decision_no[15] 	8771
scalar tree_4_3_u04_r14_network.node[15].content_store 	decision_ratio[15] 	0.013829548009894
scalar tree_4_3_u04_r14_network.node[16].core_layer 	interests[16] 	12798
scalar tree_4_3_u04_r14_network.node[16].core_layer 	data[16] 	8872
scalar tree_4_3_u04_r14_network.node[16].content_store 	p_hit[16] 	0.30676668229411
scalar tree_4_3_u04_r14_network.node[16].content_store 	hits[16] 	3926
scalar tree_4_3_u04_r14_network.node[16].content_store 	misses[16] 	8872
scalar tree_4_3_u04_r14_network.node[16].content_store 	decision_yes[16] 	131
scalar tree_4_3_u04_r14_network.node[16].content_store 	decision_no[16] 	8741
scalar tree_4_3_u04_r14_network.node[16].content_store 	decision_ratio[16] 	0.014765554553652
scalar tree_4_3_u04_r14_network.node[17].core_layer 	interests[17] 	12486
scalar tree_4_3_u04_r14_network.node[17].core_layer 	data[17] 	8958
scalar tree_4_3_u04_r14_network.node[17].content_store 	p_hit[17] 	0.28255646323883
scalar tree_4_3_u04_r14_network.node[17].content_store 	hits[17] 	3528
scalar tree_4_3_u04_r14_network.node[17].content_store 	misses[17] 	8958
scalar tree_4_3_u04_r14_network.node[17].content_store 	decision_yes[17] 	129
scalar tree_4_3_u04_r14_network.node[17].content_store 	decision_no[17] 	8829
scalar tree_4_3_u04_r14_network.node[17].content_store 	decision_ratio[17] 	0.014400535833891
scalar tree_4_3_u04_r14_network.node[18].core_layer 	interests[18] 	12783
scalar tree_4_3_u04_r14_network.node[18].core_layer 	data[18] 	9099
scalar tree_4_3_u04_r14_network.node[18].content_store 	p_hit[18] 	0.2881952593288
scalar tree_4_3_u04_r14_network.node[18].content_store 	hits[18] 	3684
scalar tree_4_3_u04_r14_network.node[18].content_store 	misses[18] 	9099
scalar tree_4_3_u04_r14_network.node[18].content_store 	decision_yes[18] 	110
scalar tree_4_3_u04_r14_network.node[18].content_store 	decision_no[18] 	8989
scalar tree_4_3_u04_r14_network.node[18].content_store 	decision_ratio[18] 	0.012089240575887
scalar tree_4_3_u04_r14_network.node[19].core_layer 	interests[19] 	12603
scalar tree_4_3_u04_r14_network.node[19].core_layer 	data[19] 	9018
scalar tree_4_3_u04_r14_network.node[19].content_store 	p_hit[19] 	0.28445608188527
scalar tree_4_3_u04_r14_network.node[19].content_store 	hits[19] 	3585
scalar tree_4_3_u04_r14_network.node[19].content_store 	misses[19] 	9018
scalar tree_4_3_u04_r14_network.node[19].content_store 	decision_yes[19] 	102
scalar tree_4_3_u04_r14_network.node[19].content_store 	decision_no[19] 	8916
scalar tree_4_3_u04_r14_network.node[19].content_store 	decision_ratio[19] 	0.011310711909514
scalar tree_4_3_u04_r14_network.node[20].core_layer 	interests[20] 	13276
scalar tree_4_3_u04_r14_network.node[20].core_layer 	data[20] 	8917
scalar tree_4_3_u04_r14_network.node[20].content_store 	p_hit[20] 	0.32826152455559
scalar tree_4_3_u04_r14_network.node[20].content_store 	hits[20] 	4358
scalar tree_4_3_u04_r14_network.node[20].content_store 	misses[20] 	8918
scalar tree_4_3_u04_r14_network.node[20].content_store 	decision_yes[20] 	128
scalar tree_4_3_u04_r14_network.node[20].content_store 	decision_no[20] 	8789
scalar tree_4_3_u04_r14_network.node[20].content_store 	decision_ratio[20] 	0.014354603566222
scalar tree_4_3_u04_r14_network.node[21].core_layer 	interests[21] 	12446
scalar tree_4_3_u04_r14_network.node[21].core_layer 	data[21] 	8827
scalar tree_4_3_u04_r14_network.node[21].content_store 	p_hit[21] 	0.29077615298088
scalar tree_4_3_u04_r14_network.node[21].content_store 	hits[21] 	3619
scalar tree_4_3_u04_r14_network.node[21].content_store 	misses[21] 	8827
scalar tree_4_3_u04_r14_network.node[21].content_store 	decision_yes[21] 	124
scalar tree_4_3_u04_r14_network.node[21].content_store 	decision_no[21] 	8703
scalar tree_4_3_u04_r14_network.node[21].content_store 	decision_ratio[21] 	0.014047807862241
scalar tree_4_3_u04_r14_network.node[22].core_layer 	interests[22] 	12786
scalar tree_4_3_u04_r14_network.node[22].core_layer 	data[22] 	9004
scalar tree_4_3_u04_r14_network.node[22].content_store 	p_hit[22] 	0.29579227279837
scalar tree_4_3_u04_r14_network.node[22].content_store 	hits[22] 	3782
scalar tree_4_3_u04_r14_network.node[22].content_store 	misses[22] 	9004
scalar tree_4_3_u04_r14_network.node[22].content_store 	decision_yes[22] 	112
scalar tree_4_3_u04_r14_network.node[22].content_store 	decision_no[22] 	8892
scalar tree_4_3_u04_r14_network.node[22].content_store 	decision_ratio[22] 	0.012438916037317
scalar tree_4_3_u04_r14_network.node[23].core_layer 	interests[23] 	12992
scalar tree_4_3_u04_r14_network.node[23].core_layer 	data[23] 	8952
scalar tree_4_3_u04_r14_network.node[23].content_store 	p_hit[23] 	0.310960591133
scalar tree_4_3_u04_r14_network.node[23].content_store 	hits[23] 	4040
scalar tree_4_3_u04_r14_network.node[23].content_store 	misses[23] 	8952
scalar tree_4_3_u04_r14_network.node[23].content_store 	decision_yes[23] 	127
scalar tree_4_3_u04_r14_network.node[23].content_store 	decision_no[23] 	8825
scalar tree_4_3_u04_r14_network.node[23].content_store 	decision_ratio[23] 	0.014186773905273
scalar tree_4_3_u04_r14_network.node[24].core_layer 	interests[24] 	12531
scalar tree_4_3_u04_r14_network.node[24].core_layer 	data[24] 	8812
scalar tree_4_3_u04_r14_network.node[24].content_store 	p_hit[24] 	0.29678397574016
scalar tree_4_3_u04_r14_network.node[24].content_store 	hits[24] 	3719
scalar tree_4_3_u04_r14_network.node[24].content_store 	misses[24] 	8812
scalar tree_4_3_u04_r14_network.node[24].content_store 	decision_yes[24] 	105
scalar tree_4_3_u04_r14_network.node[24].content_store 	decision_no[24] 	8707
scalar tree_4_3_u04_r14_network.node[24].content_store 	decision_ratio[24] 	0.011915569677712
scalar tree_4_3_u04_r14_network.node[25].core_layer 	interests[25] 	12464
scalar tree_4_3_u04_r14_network.node[25].core_layer 	data[25] 	8946
scalar tree_4_3_u04_r14_network.node[25].content_store 	p_hit[25] 	0.28225288831836
scalar tree_4_3_u04_r14_network.node[25].content_store 	hits[25] 	3518
scalar tree_4_3_u04_r14_network.node[25].content_store 	misses[25] 	8946
scalar tree_4_3_u04_r14_network.node[25].content_store 	decision_yes[25] 	147
scalar tree_4_3_u04_r14_network.node[25].content_store 	decision_no[25] 	8799
scalar tree_4_3_u04_r14_network.node[25].content_store 	decision_ratio[25] 	0.016431924882629
scalar tree_4_3_u04_r14_network.node[26].core_layer 	interests[26] 	12500
scalar tree_4_3_u04_r14_network.node[26].core_layer 	data[26] 	9076
scalar tree_4_3_u04_r14_network.node[26].content_store 	p_hit[26] 	0.27384
scalar tree_4_3_u04_r14_network.node[26].content_store 	hits[26] 	3423
scalar tree_4_3_u04_r14_network.node[26].content_store 	misses[26] 	9077
scalar tree_4_3_u04_r14_network.node[26].content_store 	decision_yes[26] 	121
scalar tree_4_3_u04_r14_network.node[26].content_store 	decision_no[26] 	8955
scalar tree_4_3_u04_r14_network.node[26].content_store 	decision_ratio[26] 	0.013331864257382
scalar tree_4_3_u04_r14_network.node[27].core_layer 	interests[27] 	12448
scalar tree_4_3_u04_r14_network.node[27].core_layer 	data[27] 	8887
scalar tree_4_3_u04_r14_network.node[27].content_store 	p_hit[27] 	0.28607005141388
scalar tree_4_3_u04_r14_network.node[27].content_store 	hits[27] 	3561
scalar tree_4_3_u04_r14_network.node[27].content_store 	misses[27] 	8887
scalar tree_4_3_u04_r14_network.node[27].content_store 	decision_yes[27] 	128
scalar tree_4_3_u04_r14_network.node[27].content_store 	decision_no[27] 	8759
scalar tree_4_3_u04_r14_network.node[27].content_store 	decision_ratio[27] 	0.014403060650388
scalar tree_4_3_u04_r14_network.node[28].core_layer 	interests[28] 	13552
scalar tree_4_3_u04_r14_network.node[28].core_layer 	data[28] 	9145
scalar tree_4_3_u04_r14_network.node[28].content_store 	p_hit[28] 	0.32519185360094
scalar tree_4_3_u04_r14_network.node[28].content_store 	hits[28] 	4407
scalar tree_4_3_u04_r14_network.node[28].content_store 	misses[28] 	9145
scalar tree_4_3_u04_r14_network.node[28].content_store 	decision_yes[28] 	137
scalar tree_4_3_u04_r14_network.node[28].content_store 	decision_no[28] 	9008
scalar tree_4_3_u04_r14_network.node[28].content_store 	decision_ratio[28] 	0.014980863860033
scalar tree_4_3_u04_r14_network.node[29].core_layer 	interests[29] 	12336
scalar tree_4_3_u04_r14_network.node[29].core_layer 	data[29] 	8839
scalar tree_4_3_u04_r14_network.node[29].content_store 	p_hit[29] 	0.28347924773022
scalar tree_4_3_u04_r14_network.node[29].content_store 	hits[29] 	3497
scalar tree_4_3_u04_r14_network.node[29].content_store 	misses[29] 	8839
scalar tree_4_3_u04_r14_network.node[29].content_store 	decision_yes[29] 	119
scalar tree_4_3_u04_r14_network.node[29].content_store 	decision_no[29] 	8720
scalar tree_4_3_u04_r14_network.node[29].content_store 	decision_ratio[29] 	0.013463061432289
scalar tree_4_3_u04_r14_network.node[30].core_layer 	interests[30] 	12561
scalar tree_4_3_u04_r14_network.node[30].core_layer 	data[30] 	8962
scalar tree_4_3_u04_r14_network.node[30].content_store 	p_hit[30] 	0.28652177374413
scalar tree_4_3_u04_r14_network.node[30].content_store 	hits[30] 	3599
scalar tree_4_3_u04_r14_network.node[30].content_store 	misses[30] 	8962
scalar tree_4_3_u04_r14_network.node[30].content_store 	decision_yes[30] 	123
scalar tree_4_3_u04_r14_network.node[30].content_store 	decision_no[30] 	8839
scalar tree_4_3_u04_r14_network.node[30].content_store 	decision_ratio[30] 	0.013724615041285
scalar tree_4_3_u04_r14_network.node[31].core_layer 	interests[31] 	12831
scalar tree_4_3_u04_r14_network.node[31].core_layer 	data[31] 	8981
scalar tree_4_3_u04_r14_network.node[31].content_store 	p_hit[31] 	0.29997661912556
scalar tree_4_3_u04_r14_network.node[31].content_store 	hits[31] 	3849
scalar tree_4_3_u04_r14_network.node[31].content_store 	misses[31] 	8982
scalar tree_4_3_u04_r14_network.node[31].content_store 	decision_yes[31] 	105
scalar tree_4_3_u04_r14_network.node[31].content_store 	decision_no[31] 	8876
scalar tree_4_3_u04_r14_network.node[31].content_store 	decision_ratio[31] 	0.011691348402182
scalar tree_4_3_u04_r14_network.node[32].core_layer 	interests[32] 	12675
scalar tree_4_3_u04_r14_network.node[32].core_layer 	data[32] 	9004
scalar tree_4_3_u04_r14_network.node[32].content_store 	p_hit[32] 	0.28962524654832
scalar tree_4_3_u04_r14_network.node[32].content_store 	hits[32] 	3671
scalar tree_4_3_u04_r14_network.node[32].content_store 	misses[32] 	9004
scalar tree_4_3_u04_r14_network.node[32].content_store 	decision_yes[32] 	122
scalar tree_4_3_u04_r14_network.node[32].content_store 	decision_no[32] 	8882
scalar tree_4_3_u04_r14_network.node[32].content_store 	decision_ratio[32] 	0.013549533540649
scalar tree_4_3_u04_r14_network.node[33].core_layer 	interests[33] 	12590
scalar tree_4_3_u04_r14_network.node[33].core_layer 	data[33] 	8879
scalar tree_4_3_u04_r14_network.node[33].content_store 	p_hit[33] 	0.29475774424146
scalar tree_4_3_u04_r14_network.node[33].content_store 	hits[33] 	3711
scalar tree_4_3_u04_r14_network.node[33].content_store 	misses[33] 	8879
scalar tree_4_3_u04_r14_network.node[33].content_store 	decision_yes[33] 	101
scalar tree_4_3_u04_r14_network.node[33].content_store 	decision_no[33] 	8778
scalar tree_4_3_u04_r14_network.node[33].content_store 	decision_ratio[33] 	0.011375154859782
scalar tree_4_3_u04_r14_network.node[34].core_layer 	interests[34] 	12660
scalar tree_4_3_u04_r14_network.node[34].core_layer 	data[34] 	9114
scalar tree_4_3_u04_r14_network.node[34].content_store 	p_hit[34] 	0.28009478672986
scalar tree_4_3_u04_r14_network.node[34].content_store 	hits[34] 	3546
scalar tree_4_3_u04_r14_network.node[34].content_store 	misses[34] 	9114
scalar tree_4_3_u04_r14_network.node[34].content_store 	decision_yes[34] 	124
scalar tree_4_3_u04_r14_network.node[34].content_store 	decision_no[34] 	8990
scalar tree_4_3_u04_r14_network.node[34].content_store 	decision_ratio[34] 	0.013605442176871
scalar tree_4_3_u04_r14_network.node[35].core_layer 	interests[35] 	12581
scalar tree_4_3_u04_r14_network.node[35].core_layer 	data[35] 	8878
scalar tree_4_3_u04_r14_network.node[35].content_store 	p_hit[35] 	0.29433272394881
scalar tree_4_3_u04_r14_network.node[35].content_store 	hits[35] 	3703
scalar tree_4_3_u04_r14_network.node[35].content_store 	misses[35] 	8878
scalar tree_4_3_u04_r14_network.node[35].content_store 	decision_yes[35] 	106
scalar tree_4_3_u04_r14_network.node[35].content_store 	decision_no[35] 	8772
scalar tree_4_3_u04_r14_network.node[35].content_store 	decision_ratio[35] 	0.011939626041901
scalar tree_4_3_u04_r14_network.node[36].core_layer 	interests[36] 	12547
scalar tree_4_3_u04_r14_network.node[36].core_layer 	data[36] 	8902
scalar tree_4_3_u04_r14_network.node[36].content_store 	p_hit[36] 	0.29050769108153
scalar tree_4_3_u04_r14_network.node[36].content_store 	hits[36] 	3645
scalar tree_4_3_u04_r14_network.node[36].content_store 	misses[36] 	8902
scalar tree_4_3_u04_r14_network.node[36].content_store 	decision_yes[36] 	113
scalar tree_4_3_u04_r14_network.node[36].content_store 	decision_no[36] 	8789
scalar tree_4_3_u04_r14_network.node[36].content_store 	decision_ratio[36] 	0.012693776679398
scalar tree_4_3_u04_r14_network.node[37].core_layer 	interests[37] 	12558
scalar tree_4_3_u04_r14_network.node[37].core_layer 	data[37] 	9014
scalar tree_4_3_u04_r14_network.node[37].content_store 	p_hit[37] 	0.28221054308011
scalar tree_4_3_u04_r14_network.node[37].content_store 	hits[37] 	3544
scalar tree_4_3_u04_r14_network.node[37].content_store 	misses[37] 	9014
scalar tree_4_3_u04_r14_network.node[37].content_store 	decision_yes[37] 	132
scalar tree_4_3_u04_r14_network.node[37].content_store 	decision_no[37] 	8882
scalar tree_4_3_u04_r14_network.node[37].content_store 	decision_ratio[37] 	0.014643887286443
scalar tree_4_3_u04_r14_network.node[38].core_layer 	interests[38] 	12542
scalar tree_4_3_u04_r14_network.node[38].core_layer 	data[38] 	8852
scalar tree_4_3_u04_r14_network.node[38].content_store 	p_hit[38] 	0.29421144952958
scalar tree_4_3_u04_r14_network.node[38].content_store 	hits[38] 	3690
scalar tree_4_3_u04_r14_network.node[38].content_store 	misses[38] 	8852
scalar tree_4_3_u04_r14_network.node[38].content_store 	decision_yes[38] 	119
scalar tree_4_3_u04_r14_network.node[38].content_store 	decision_no[38] 	8733
scalar tree_4_3_u04_r14_network.node[38].content_store 	decision_ratio[38] 	0.013443289652056
scalar tree_4_3_u04_r14_network.node[39].core_layer 	interests[39] 	12517
scalar tree_4_3_u04_r14_network.node[39].core_layer 	data[39] 	8953
scalar tree_4_3_u04_r14_network.node[39].content_store 	p_hit[39] 	0.28473276344172
scalar tree_4_3_u04_r14_network.node[39].content_store 	hits[39] 	3564
scalar tree_4_3_u04_r14_network.node[39].content_store 	misses[39] 	8953
scalar tree_4_3_u04_r14_network.node[39].content_store 	decision_yes[39] 	110
scalar tree_4_3_u04_r14_network.node[39].content_store 	decision_no[39] 	8843
scalar tree_4_3_u04_r14_network.node[39].content_store 	decision_ratio[39] 	0.012286384452139
scalar tree_4_3_u04_r14_network.client[13] 	hdistance[13] 	2.7383452330953
scalar tree_4_3_u04_r14_network.client[13] 	downloads[13] 	11905
scalar tree_4_3_u04_r14_network.client[13] 	avg_time[13] 	0.004306590907
scalar tree_4_3_u04_r14_network.client[14] 	hdistance[14] 	2.6485394393467
scalar tree_4_3_u04_r14_network.client[14] 	downloads[14] 	11879
scalar tree_4_3_u04_r14_network.client[14] 	avg_time[14] 	0.004132836491
scalar tree_4_3_u04_r14_network.client[15] 	hdistance[15] 	2.6207356743682
scalar tree_4_3_u04_r14_network.client[15] 	downloads[15] 	11989
scalar tree_4_3_u04_r14_network.client[15] 	avg_time[15] 	0.004133285855
scalar tree_4_3_u04_r14_network.client[16] 	hdistance[16] 	2.6694416414396
scalar tree_4_3_u04_r14_network.client[16] 	downloads[16] 	11892
scalar tree_4_3_u04_r14_network.client[16] 	avg_time[16] 	0.004167504593
scalar tree_4_3_u04_r14_network.client[17] 	hdistance[17] 	2.7089973439575
scalar tree_4_3_u04_r14_network.client[17] 	downloads[17] 	12048
scalar tree_4_3_u04_r14_network.client[17] 	avg_time[17] 	0.004253815042
scalar tree_4_3_u04_r14_network.client[18] 	hdistance[18] 	2.7157281234608
scalar tree_4_3_u04_r14_network.client[18] 	downloads[18] 	12182
scalar tree_4_3_u04_r14_network.client[18] 	avg_time[18] 	0.004263828808
scalar tree_4_3_u04_r14_network.client[19] 	hdistance[19] 	2.7084723148766
scalar tree_4_3_u04_r14_network.client[19] 	downloads[19] 	11992
scalar tree_4_3_u04_r14_network.client[19] 	avg_time[19] 	0.004289690106
scalar tree_4_3_u04_r14_network.client[20] 	hdistance[20] 	2.6190236958888
scalar tree_4_3_u04_r14_network.client[20] 	downloads[20] 	11943
scalar tree_4_3_u04_r14_network.client[20] 	avg_time[20] 	0.004124296261
scalar tree_4_3_u04_r14_network.client[21] 	hdistance[21] 	2.6734297066531
scalar tree_4_3_u04_r14_network.client[21] 	downloads[21] 	11829
scalar tree_4_3_u04_r14_network.client[21] 	avg_time[21] 	0.004235519894
scalar tree_4_3_u04_r14_network.client[22] 	hdistance[22] 	2.6971807628524
scalar tree_4_3_u04_r14_network.client[22] 	downloads[22] 	12060
scalar tree_4_3_u04_r14_network.client[22] 	avg_time[22] 	0.00426616613
scalar tree_4_3_u04_r14_network.client[23] 	hdistance[23] 	2.6602128907887
scalar tree_4_3_u04_r14_network.client[23] 	downloads[23] 	11931
scalar tree_4_3_u04_r14_network.client[23] 	avg_time[23] 	0.004178874718
scalar tree_4_3_u04_r14_network.client[24] 	hdistance[24] 	2.6822602280349
scalar tree_4_3_u04_r14_network.client[24] 	downloads[24] 	11928
scalar tree_4_3_u04_r14_network.client[24] 	avg_time[24] 	0.004229540954
scalar tree_4_3_u04_r14_network.client[25] 	hdistance[25] 	2.7360431356284
scalar tree_4_3_u04_r14_network.client[25] 	downloads[25] 	12055
scalar tree_4_3_u04_r14_network.client[25] 	avg_time[25] 	0.004242551949
scalar tree_4_3_u04_r14_network.client[26] 	hdistance[26] 	2.7533739302172
scalar tree_4_3_u04_r14_network.client[26] 	downloads[26] 	12152
scalar tree_4_3_u04_r14_network.client[26] 	avg_time[26] 	0.004265965098
scalar tree_4_3_u04_r14_network.client[27] 	hdistance[27] 	2.7341141290805
scalar tree_4_3_u04_r14_network.client[27] 	downloads[27] 	12039
scalar tree_4_3_u04_r14_network.client[27] 	avg_time[27] 	0.004228753548
scalar tree_4_3_u04_r14_network.client[28] 	hdistance[28] 	2.6409346103038
scalar tree_4_3_u04_r14_network.client[28] 	downloads[28] 	12112
scalar tree_4_3_u04_r14_network.client[28] 	avg_time[28] 	0.004179158127
scalar tree_4_3_u04_r14_network.client[29] 	hdistance[29] 	2.7084112149533
scalar tree_4_3_u04_r14_network.client[29] 	downloads[29] 	11770
scalar tree_4_3_u04_r14_network.client[29] 	avg_time[29] 	0.004277312279
scalar tree_4_3_u04_r14_network.client[30] 	hdistance[30] 	2.6958073889581
scalar tree_4_3_u04_r14_network.client[30] 	downloads[30] 	12045
scalar tree_4_3_u04_r14_network.client[30] 	avg_time[30] 	0.00425713327
scalar tree_4_3_u04_r14_network.client[31] 	hdistance[31] 	2.6993702353331
scalar tree_4_3_u04_r14_network.client[31] 	downloads[31] 	12068
scalar tree_4_3_u04_r14_network.client[31] 	avg_time[31] 	0.004278034594
scalar tree_4_3_u04_r14_network.client[32] 	hdistance[32] 	2.7106692288412
scalar tree_4_3_u04_r14_network.client[32] 	downloads[32] 	11969
scalar tree_4_3_u04_r14_network.client[32] 	avg_time[32] 	0.004307959246
scalar tree_4_3_u04_r14_network.client[33] 	hdistance[33] 	2.7087206354572
scalar tree_4_3_u04_r14_network.client[33] 	downloads[33] 	11834
scalar tree_4_3_u04_r14_network.client[33] 	avg_time[33] 	0.004300994141
scalar tree_4_3_u04_r14_network.client[34] 	hdistance[34] 	2.737634762571
scalar tree_4_3_u04_r14_network.client[34] 	downloads[34] 	12151
scalar tree_4_3_u04_r14_network.client[34] 	avg_time[34] 	0.004306096558
scalar tree_4_3_u04_r14_network.client[35] 	hdistance[35] 	2.7106048053024
scalar tree_4_3_u04_r14_network.client[35] 	downloads[35] 	12070
scalar tree_4_3_u04_r14_network.client[35] 	avg_time[35] 	0.004247890821
scalar tree_4_3_u04_r14_network.client[36] 	hdistance[36] 	2.7188671386922
scalar tree_4_3_u04_r14_network.client[36] 	downloads[36] 	12005
scalar tree_4_3_u04_r14_network.client[36] 	avg_time[36] 	0.004268385174
scalar tree_4_3_u04_r14_network.client[37] 	hdistance[37] 	2.7425463001412
scalar tree_4_3_u04_r14_network.client[37] 	downloads[37] 	12041
scalar tree_4_3_u04_r14_network.client[37] 	avg_time[37] 	0.004297646661
scalar tree_4_3_u04_r14_network.client[38] 	hdistance[38] 	2.711823480433
scalar tree_4_3_u04_r14_network.client[38] 	downloads[38] 	12010
scalar tree_4_3_u04_r14_network.client[38] 	avg_time[38] 	0.004250954568
scalar tree_4_3_u04_r14_network.client[39] 	hdistance[39] 	2.7287584424248
scalar tree_4_3_u04_r14_network.client[39] 	downloads[39] 	11993
scalar tree_4_3_u04_r14_network.client[39] 	avg_time[39] 	0.004290499802
