version 2
run General-96-20160902-13:47:39-7280
attr a 0.9
attr cd wfc0.01
attr configname General
attr cr lru
attr datetime 20160902-13:47:39
attr experiment General
attr fsize 1
attr inifile hw5115/scenario_Y/omnetp.ini
attr iterationvars "$name=tree_4_3, $un=04, $rep=17, $cd=wfc0.01, $cr=lru, $fsize=1, $a=0.9, $sl=nrr, $ttl=1000, $variance=0.05"
attr iterationvars2 "$name=tree_4_3, $un=04, $rep=17, $cd=wfc0.01, $cr=lru, $fsize=1, $a=0.9, $sl=nrr, $ttl=1000, $variance=0.05, $repetition=0"
attr measurement "$name=tree_4_3, $un=04, $rep=17, $cd=wfc0.01, $cr=lru, $fsize=1, $a=0.9, $sl=nrr, $ttl=1000, $variance=0.05"
attr name tree_4_3
attr network networks.${name}_u${un}_r${rep}_network
attr processid 7280
attr rep 17
attr repetition 0
attr replication #0
attr resultdir results
attr runnumber 96
attr seedset 17
attr sl nrr
attr ttl 1000
attr un 04
attr variance 0.05

scalar . 	a 	0.9
scalar . 	fsize 	1
scalar . 	rep 	17
scalar . 	ttl 	1000
scalar . 	un 	04
scalar . 	variance 	0.05
scalar tree_4_3_u04_r17_network.content_distribution 	repo-0 	0
scalar tree_4_3_u04_r17_network.content_distribution 	client-0 	13
scalar tree_4_3_u04_r17_network.content_distribution 	client-1 	14
scalar tree_4_3_u04_r17_network.content_distribution 	client-2 	15
scalar tree_4_3_u04_r17_network.content_distribution 	client-3 	16
scalar tree_4_3_u04_r17_network.content_distribution 	client-4 	17
scalar tree_4_3_u04_r17_network.content_distribution 	client-5 	18
scalar tree_4_3_u04_r17_network.content_distribution 	client-6 	19
scalar tree_4_3_u04_r17_network.content_distribution 	client-7 	20
scalar tree_4_3_u04_r17_network.content_distribution 	client-8 	21
scalar tree_4_3_u04_r17_network.content_distribution 	client-9 	22
scalar tree_4_3_u04_r17_network.content_distribution 	client-10 	23
scalar tree_4_3_u04_r17_network.content_distribution 	client-11 	24
scalar tree_4_3_u04_r17_network.content_distribution 	client-12 	25
scalar tree_4_3_u04_r17_network.content_distribution 	client-13 	26
scalar tree_4_3_u04_r17_network.content_distribution 	client-14 	27
scalar tree_4_3_u04_r17_network.content_distribution 	client-15 	28
scalar tree_4_3_u04_r17_network.content_distribution 	client-16 	29
scalar tree_4_3_u04_r17_network.content_distribution 	client-17 	30
scalar tree_4_3_u04_r17_network.content_distribution 	client-18 	31
scalar tree_4_3_u04_r17_network.content_distribution 	client-19 	32
scalar tree_4_3_u04_r17_network.content_distribution 	client-20 	33
scalar tree_4_3_u04_r17_network.content_distribution 	client-21 	34
scalar tree_4_3_u04_r17_network.content_distribution 	client-22 	35
scalar tree_4_3_u04_r17_network.content_distribution 	client-23 	36
scalar tree_4_3_u04_r17_network.content_distribution 	client-24 	37
scalar tree_4_3_u04_r17_network.content_distribution 	client-25 	38
scalar tree_4_3_u04_r17_network.content_distribution 	client-26 	39
scalar tree_4_3_u04_r17_network.content_distribution 	repo-0_card 	100000
scalar tree_4_3_u04_r17_network.content_distribution 	repo-0_price 	0
scalar tree_4_3_u04_r17_network.statistics 	stabilization_time 	1068.7
scalar tree_4_3_u04_r17_network.statistics 	p_hit 	0.23020612277849
scalar tree_4_3_u04_r17_network.statistics 	interests 	25203.35
scalar tree_4_3_u04_r17_network.statistics 	data 	17117
scalar tree_4_3_u04_r17_network.statistics 	hdistance 	2.6880243489181
scalar tree_4_3_u04_r17_network.statistics 	avg_time 	0.004233500893
scalar tree_4_3_u04_r17_network.statistics 	downloads 	323461
scalar tree_4_3_u04_r17_network.statistics 	total_cost 	0
scalar tree_4_3_u04_r17_network.statistics 	total_replicas 	100000
scalar tree_4_3_u04_r17_network.statistics 	inner_hit 	0.42871938193476
scalar tree_4_3_u04_r17_network.node[0].core_layer 	interests[0] 	186901
scalar tree_4_3_u04_r17_network.node[0].core_layer 	repo_load[0] 	184787
scalar tree_4_3_u04_r17_network.node[0].core_layer 	data[0] 	0
scalar tree_4_3_u04_r17_network.node[0].core_layer 	repo_int[0] 	184787
scalar tree_4_3_u04_r17_network.node[0].content_store 	p_hit[0] 	0.011310800905292
scalar tree_4_3_u04_r17_network.node[0].content_store 	hits[0] 	2114
scalar tree_4_3_u04_r17_network.node[0].content_store 	misses[0] 	184787
scalar tree_4_3_u04_r17_network.node[0].content_store 	decision_yes[0] 	2695
scalar tree_4_3_u04_r17_network.node[0].content_store 	decision_no[0] 	182092
scalar tree_4_3_u04_r17_network.node[0].content_store 	decision_ratio[0] 	0.014584359289344
scalar tree_4_3_u04_r17_network.node[1].core_layer 	interests[1] 	89117
scalar tree_4_3_u04_r17_network.node[1].core_layer 	data[1] 	87773
scalar tree_4_3_u04_r17_network.node[1].content_store 	p_hit[1] 	0.01505885521281
scalar tree_4_3_u04_r17_network.node[1].content_store 	hits[1] 	1342
scalar tree_4_3_u04_r17_network.node[1].content_store 	misses[1] 	87775
scalar tree_4_3_u04_r17_network.node[1].content_store 	decision_yes[1] 	996
scalar tree_4_3_u04_r17_network.node[1].content_store 	decision_no[1] 	86777
scalar tree_4_3_u04_r17_network.node[1].content_store 	decision_ratio[1] 	0.011347453089219
scalar tree_4_3_u04_r17_network.node[2].core_layer 	interests[2] 	95933
scalar tree_4_3_u04_r17_network.node[2].core_layer 	data[2] 	92965
scalar tree_4_3_u04_r17_network.node[2].content_store 	p_hit[2] 	0.030927835051546
scalar tree_4_3_u04_r17_network.node[2].content_store 	hits[2] 	2967
scalar tree_4_3_u04_r17_network.node[2].content_store 	misses[2] 	92966
scalar tree_4_3_u04_r17_network.node[2].content_store 	decision_yes[2] 	1201
scalar tree_4_3_u04_r17_network.node[2].content_store 	decision_no[2] 	91764
scalar tree_4_3_u04_r17_network.node[2].content_store 	decision_ratio[2] 	0.012918840423815
scalar tree_4_3_u04_r17_network.node[3].core_layer 	interests[3] 	31753
scalar tree_4_3_u04_r17_network.node[3].core_layer 	data[3] 	27890
scalar tree_4_3_u04_r17_network.node[3].content_store 	p_hit[3] 	0.12168928920102
scalar tree_4_3_u04_r17_network.node[3].content_store 	hits[3] 	3864
scalar tree_4_3_u04_r17_network.node[3].content_store 	misses[3] 	27889
scalar tree_4_3_u04_r17_network.node[3].content_store 	decision_yes[3] 	586
scalar tree_4_3_u04_r17_network.node[3].content_store 	decision_no[3] 	27304
scalar tree_4_3_u04_r17_network.node[3].content_store 	decision_ratio[3] 	0.021011115095016
scalar tree_4_3_u04_r17_network.node[4].core_layer 	interests[4] 	34725
scalar tree_4_3_u04_r17_network.node[4].core_layer 	data[4] 	32690
scalar tree_4_3_u04_r17_network.node[4].content_store 	p_hit[4] 	0.058632109431245
scalar tree_4_3_u04_r17_network.node[4].content_store 	hits[4] 	2036
scalar tree_4_3_u04_r17_network.node[4].content_store 	misses[4] 	32689
scalar tree_4_3_u04_r17_network.node[4].content_store 	decision_yes[4] 	454
scalar tree_4_3_u04_r17_network.node[4].content_store 	decision_no[4] 	32236
scalar tree_4_3_u04_r17_network.node[4].content_store 	decision_ratio[4] 	0.013888039155705
scalar tree_4_3_u04_r17_network.node[5].core_layer 	interests[5] 	40315
scalar tree_4_3_u04_r17_network.node[5].core_layer 	data[5] 	36193
scalar tree_4_3_u04_r17_network.node[5].content_store 	p_hit[5] 	0.10222001736326
scalar tree_4_3_u04_r17_network.node[5].content_store 	hits[5] 	4121
scalar tree_4_3_u04_r17_network.node[5].content_store 	misses[5] 	36194
scalar tree_4_3_u04_r17_network.node[5].content_store 	decision_yes[5] 	685
scalar tree_4_3_u04_r17_network.node[5].content_store 	decision_no[5] 	35508
scalar tree_4_3_u04_r17_network.node[5].content_store 	decision_ratio[5] 	0.018926311717735
scalar tree_4_3_u04_r17_network.node[6].core_layer 	interests[6] 	13048
scalar tree_4_3_u04_r17_network.node[6].core_layer 	data[6] 	9790
scalar tree_4_3_u04_r17_network.node[6].content_store 	p_hit[6] 	0.2496934396076
scalar tree_4_3_u04_r17_network.node[6].content_store 	hits[6] 	3258
scalar tree_4_3_u04_r17_network.node[6].content_store 	misses[6] 	9790
scalar tree_4_3_u04_r17_network.node[6].content_store 	decision_yes[6] 	249
scalar tree_4_3_u04_r17_network.node[6].content_store 	decision_no[6] 	9541
scalar tree_4_3_u04_r17_network.node[6].content_store 	decision_ratio[6] 	0.025434116445352
scalar tree_4_3_u04_r17_network.node[7].core_layer 	interests[7] 	27043
scalar tree_4_3_u04_r17_network.node[7].core_layer 	data[7] 	24788
scalar tree_4_3_u04_r17_network.node[7].content_store 	p_hit[7] 	0.083385719040047
scalar tree_4_3_u04_r17_network.node[7].content_store 	hits[7] 	2255
scalar tree_4_3_u04_r17_network.node[7].content_store 	misses[7] 	24788
scalar tree_4_3_u04_r17_network.node[7].content_store 	decision_yes[7] 	363
scalar tree_4_3_u04_r17_network.node[7].content_store 	decision_no[7] 	24425
scalar tree_4_3_u04_r17_network.node[7].content_store 	decision_ratio[7] 	0.014644182669033
scalar tree_4_3_u04_r17_network.node[8].core_layer 	interests[8] 	28506
scalar tree_4_3_u04_r17_network.node[8].core_layer 	data[8] 	26178
scalar tree_4_3_u04_r17_network.node[8].content_store 	p_hit[8] 	0.081667017470006
scalar tree_4_3_u04_r17_network.node[8].content_store 	hits[8] 	2328
scalar tree_4_3_u04_r17_network.node[8].content_store 	misses[8] 	26178
scalar tree_4_3_u04_r17_network.node[8].content_store 	decision_yes[8] 	387
scalar tree_4_3_u04_r17_network.node[8].content_store 	decision_no[8] 	25791
scalar tree_4_3_u04_r17_network.node[8].content_store 	decision_ratio[8] 	0.014783405913362
scalar tree_4_3_u04_r17_network.node[9].core_layer 	interests[9] 	31124
scalar tree_4_3_u04_r17_network.node[9].core_layer 	data[9] 	27380
scalar tree_4_3_u04_r17_network.node[9].content_store 	p_hit[9] 	0.12029302146254
scalar tree_4_3_u04_r17_network.node[9].content_store 	hits[9] 	3744
scalar tree_4_3_u04_r17_network.node[9].content_store 	misses[9] 	27380
scalar tree_4_3_u04_r17_network.node[9].content_store 	decision_yes[9] 	568
scalar tree_4_3_u04_r17_network.node[9].content_store 	decision_no[9] 	26812
scalar tree_4_3_u04_r17_network.node[9].content_store 	decision_ratio[9] 	0.020745069393718
scalar tree_4_3_u04_r17_network.node[10].core_layer 	interests[10] 	29223
scalar tree_4_3_u04_r17_network.node[10].core_layer 	data[10] 	26337
scalar tree_4_3_u04_r17_network.node[10].content_store 	p_hit[10] 	0.098723608116894
scalar tree_4_3_u04_r17_network.node[10].content_store 	hits[10] 	2885
scalar tree_4_3_u04_r17_network.node[10].content_store 	misses[10] 	26338
scalar tree_4_3_u04_r17_network.node[10].content_store 	decision_yes[10] 	431
scalar tree_4_3_u04_r17_network.node[10].content_store 	decision_no[10] 	25906
scalar tree_4_3_u04_r17_network.node[10].content_store 	decision_ratio[10] 	0.01636480996317
scalar tree_4_3_u04_r17_network.node[11].core_layer 	interests[11] 	29427
scalar tree_4_3_u04_r17_network.node[11].core_layer 	data[11] 	25995
scalar tree_4_3_u04_r17_network.node[11].content_store 	p_hit[11] 	0.11662758690998
scalar tree_4_3_u04_r17_network.node[11].content_store 	hits[11] 	3432
scalar tree_4_3_u04_r17_network.node[11].content_store 	misses[11] 	25995
scalar tree_4_3_u04_r17_network.node[11].content_store 	decision_yes[11] 	423
scalar tree_4_3_u04_r17_network.node[11].content_store 	decision_no[11] 	25572
scalar tree_4_3_u04_r17_network.node[11].content_store 	decision_ratio[11] 	0.016272360069244
scalar tree_4_3_u04_r17_network.node[12].core_layer 	interests[12] 	28653
scalar tree_4_3_u04_r17_network.node[12].core_layer 	data[12] 	26359
scalar tree_4_3_u04_r17_network.node[12].content_store 	p_hit[12] 	0.080131225351621
scalar tree_4_3_u04_r17_network.node[12].content_store 	hits[12] 	2296
scalar tree_4_3_u04_r17_network.node[12].content_store 	misses[12] 	26357
scalar tree_4_3_u04_r17_network.node[12].content_store 	decision_yes[12] 	422
scalar tree_4_3_u04_r17_network.node[12].content_store 	decision_no[12] 	25937
scalar tree_4_3_u04_r17_network.node[12].content_store 	decision_ratio[12] 	0.016009712052809
scalar tree_4_3_u04_r17_network.node[13].core_layer 	interests[13] 	12613
scalar tree_4_3_u04_r17_network.node[13].core_layer 	data[13] 	9027
scalar tree_4_3_u04_r17_network.node[13].content_store 	p_hit[13] 	0.28430983905494
scalar tree_4_3_u04_r17_network.node[13].content_store 	hits[13] 	3586
scalar tree_4_3_u04_r17_network.node[13].content_store 	misses[13] 	9027
scalar tree_4_3_u04_r17_network.node[13].content_store 	decision_yes[13] 	105
scalar tree_4_3_u04_r17_network.node[13].content_store 	decision_no[13] 	8922
scalar tree_4_3_u04_r17_network.node[13].content_store 	decision_ratio[13] 	0.011631771352609
scalar tree_4_3_u04_r17_network.node[14].core_layer 	interests[14] 	13357
scalar tree_4_3_u04_r17_network.node[14].core_layer 	data[14] 	8955
scalar tree_4_3_u04_r17_network.node[14].content_store 	p_hit[14] 	0.3295650220858
scalar tree_4_3_u04_r17_network.node[14].content_store 	hits[14] 	4402
scalar tree_4_3_u04_r17_network.node[14].content_store 	misses[14] 	8955
scalar tree_4_3_u04_r17_network.node[14].content_store 	decision_yes[14] 	144
scalar tree_4_3_u04_r17_network.node[14].content_store 	decision_no[14] 	8811
scalar tree_4_3_u04_r17_network.node[14].content_store 	decision_ratio[14] 	0.01608040201005
scalar tree_4_3_u04_r17_network.node[15].core_layer 	interests[15] 	12453
scalar tree_4_3_u04_r17_network.node[15].core_layer 	data[15] 	8920
scalar tree_4_3_u04_r17_network.node[15].content_store 	p_hit[15] 	0.28370673733237
scalar tree_4_3_u04_r17_network.node[15].content_store 	hits[15] 	3533
scalar tree_4_3_u04_r17_network.node[15].content_store 	misses[15] 	8920
scalar tree_4_3_u04_r17_network.node[15].content_store 	decision_yes[15] 	114
scalar tree_4_3_u04_r17_network.node[15].content_store 	decision_no[15] 	8806
scalar tree_4_3_u04_r17_network.node[15].content_store 	decision_ratio[15] 	0.012780269058296
scalar tree_4_3_u04_r17_network.node[16].core_layer 	interests[16] 	12936
scalar tree_4_3_u04_r17_network.node[16].core_layer 	data[16] 	9038
scalar tree_4_3_u04_r17_network.node[16].content_store 	p_hit[16] 	0.30132962275819
scalar tree_4_3_u04_r17_network.node[16].content_store 	hits[16] 	3898
scalar tree_4_3_u04_r17_network.node[16].content_store 	misses[16] 	9038
scalar tree_4_3_u04_r17_network.node[16].content_store 	decision_yes[16] 	119
scalar tree_4_3_u04_r17_network.node[16].content_store 	decision_no[16] 	8919
scalar tree_4_3_u04_r17_network.node[16].content_store 	decision_ratio[16] 	0.013166629785351
scalar tree_4_3_u04_r17_network.node[17].core_layer 	interests[17] 	12711
scalar tree_4_3_u04_r17_network.node[17].core_layer 	data[17] 	8856
scalar tree_4_3_u04_r17_network.node[17].content_store 	p_hit[17] 	0.30328062308237
scalar tree_4_3_u04_r17_network.node[17].content_store 	hits[17] 	3855
scalar tree_4_3_u04_r17_network.node[17].content_store 	misses[17] 	8856
scalar tree_4_3_u04_r17_network.node[17].content_store 	decision_yes[17] 	118
scalar tree_4_3_u04_r17_network.node[17].content_store 	decision_no[17] 	8738
scalar tree_4_3_u04_r17_network.node[17].content_store 	decision_ratio[17] 	0.013324299909666
scalar tree_4_3_u04_r17_network.node[18].core_layer 	interests[18] 	12827
scalar tree_4_3_u04_r17_network.node[18].core_layer 	data[18] 	8979
scalar tree_4_3_u04_r17_network.node[18].content_store 	p_hit[18] 	0.2999922039448
scalar tree_4_3_u04_r17_network.node[18].content_store 	hits[18] 	3848
scalar tree_4_3_u04_r17_network.node[18].content_store 	misses[18] 	8979
scalar tree_4_3_u04_r17_network.node[18].content_store 	decision_yes[18] 	138
scalar tree_4_3_u04_r17_network.node[18].content_store 	decision_no[18] 	8841
scalar tree_4_3_u04_r17_network.node[18].content_store 	decision_ratio[18] 	0.015369194787838
scalar tree_4_3_u04_r17_network.node[19].core_layer 	interests[19] 	12947
scalar tree_4_3_u04_r17_network.node[19].core_layer 	data[19] 	9044
scalar tree_4_3_u04_r17_network.node[19].content_store 	p_hit[19] 	0.30145979763652
scalar tree_4_3_u04_r17_network.node[19].content_store 	hits[19] 	3903
scalar tree_4_3_u04_r17_network.node[19].content_store 	misses[19] 	9044
scalar tree_4_3_u04_r17_network.node[19].content_store 	decision_yes[19] 	156
scalar tree_4_3_u04_r17_network.node[19].content_store 	decision_no[19] 	8888
scalar tree_4_3_u04_r17_network.node[19].content_store 	decision_ratio[19] 	0.017249004865104
scalar tree_4_3_u04_r17_network.node[20].core_layer 	interests[20] 	13333
scalar tree_4_3_u04_r17_network.node[20].core_layer 	data[20] 	8989
scalar tree_4_3_u04_r17_network.node[20].content_store 	p_hit[20] 	0.32580814520363
scalar tree_4_3_u04_r17_network.node[20].content_store 	hits[20] 	4344
scalar tree_4_3_u04_r17_network.node[20].content_store 	misses[20] 	8989
scalar tree_4_3_u04_r17_network.node[20].content_store 	decision_yes[20] 	140
scalar tree_4_3_u04_r17_network.node[20].content_store 	decision_no[20] 	8849
scalar tree_4_3_u04_r17_network.node[20].content_store 	decision_ratio[20] 	0.015574591166982
scalar tree_4_3_u04_r17_network.node[21].core_layer 	interests[21] 	12104
scalar tree_4_3_u04_r17_network.node[21].core_layer 	data[21] 	8722
scalar tree_4_3_u04_r17_network.node[21].content_store 	p_hit[21] 	0.27932914738929
scalar tree_4_3_u04_r17_network.node[21].content_store 	hits[21] 	3381
scalar tree_4_3_u04_r17_network.node[21].content_store 	misses[21] 	8723
scalar tree_4_3_u04_r17_network.node[21].content_store 	decision_yes[21] 	115
scalar tree_4_3_u04_r17_network.node[21].content_store 	decision_no[21] 	8607
scalar tree_4_3_u04_r17_network.node[21].content_store 	decision_ratio[21] 	0.013185049300619
scalar tree_4_3_u04_r17_network.node[22].core_layer 	interests[22] 	12423
scalar tree_4_3_u04_r17_network.node[22].core_layer 	data[22] 	8846
scalar tree_4_3_u04_r17_network.node[22].content_store 	p_hit[22] 	0.28785317556146
scalar tree_4_3_u04_r17_network.node[22].content_store 	hits[22] 	3576
scalar tree_4_3_u04_r17_network.node[22].content_store 	misses[22] 	8847
scalar tree_4_3_u04_r17_network.node[22].content_store 	decision_yes[22] 	105
scalar tree_4_3_u04_r17_network.node[22].content_store 	decision_no[22] 	8741
scalar tree_4_3_u04_r17_network.node[22].content_store 	decision_ratio[22] 	0.011869771648203
scalar tree_4_3_u04_r17_network.node[23].core_layer 	interests[23] 	12252
scalar tree_4_3_u04_r17_network.node[23].core_layer 	data[23] 	8790
scalar tree_4_3_u04_r17_network.node[23].content_store 	p_hit[23] 	0.28256611165524
scalar tree_4_3_u04_r17_network.node[23].content_store 	hits[23] 	3462
scalar tree_4_3_u04_r17_network.node[23].content_store 	misses[23] 	8790
scalar tree_4_3_u04_r17_network.node[23].content_store 	decision_yes[23] 	106
scalar tree_4_3_u04_r17_network.node[23].content_store 	decision_no[23] 	8684
scalar tree_4_3_u04_r17_network.node[23].content_store 	decision_ratio[23] 	0.012059158134243
scalar tree_4_3_u04_r17_network.node[24].core_layer 	interests[24] 	12944
scalar tree_4_3_u04_r17_network.node[24].core_layer 	data[24] 	8725
scalar tree_4_3_u04_r17_network.node[24].content_store 	p_hit[24] 	0.3258652657602
scalar tree_4_3_u04_r17_network.node[24].content_store 	hits[24] 	4218
scalar tree_4_3_u04_r17_network.node[24].content_store 	misses[24] 	8726
scalar tree_4_3_u04_r17_network.node[24].content_store 	decision_yes[24] 	126
scalar tree_4_3_u04_r17_network.node[24].content_store 	decision_no[24] 	8599
scalar tree_4_3_u04_r17_network.node[24].content_store 	decision_ratio[24] 	0.014441260744986
scalar tree_4_3_u04_r17_network.node[25].core_layer 	interests[25] 	12560
scalar tree_4_3_u04_r17_network.node[25].core_layer 	data[25] 	8980
scalar tree_4_3_u04_r17_network.node[25].content_store 	p_hit[25] 	0.28503184713376
scalar tree_4_3_u04_r17_network.node[25].content_store 	hits[25] 	3580
scalar tree_4_3_u04_r17_network.node[25].content_store 	misses[25] 	8980
scalar tree_4_3_u04_r17_network.node[25].content_store 	decision_yes[25] 	129
scalar tree_4_3_u04_r17_network.node[25].content_store 	decision_no[25] 	8851
scalar tree_4_3_u04_r17_network.node[25].content_store 	decision_ratio[25] 	0.014365256124722
scalar tree_4_3_u04_r17_network.node[26].core_layer 	interests[26] 	12554
scalar tree_4_3_u04_r17_network.node[26].core_layer 	data[26] 	8944
scalar tree_4_3_u04_r17_network.node[26].content_store 	p_hit[26] 	0.28755775051776
scalar tree_4_3_u04_r17_network.node[26].content_store 	hits[26] 	3610
scalar tree_4_3_u04_r17_network.node[26].content_store 	misses[26] 	8944
scalar tree_4_3_u04_r17_network.node[26].content_store 	decision_yes[26] 	115
scalar tree_4_3_u04_r17_network.node[26].content_store 	decision_no[26] 	8829
scalar tree_4_3_u04_r17_network.node[26].content_store 	decision_ratio[26] 	0.012857781753131
scalar tree_4_3_u04_r17_network.node[27].core_layer 	interests[27] 	12473
scalar tree_4_3_u04_r17_network.node[27].core_layer 	data[27] 	8847
scalar tree_4_3_u04_r17_network.node[27].content_store 	p_hit[27] 	0.29070792912691
scalar tree_4_3_u04_r17_network.node[27].content_store 	hits[27] 	3626
scalar tree_4_3_u04_r17_network.node[27].content_store 	misses[27] 	8847
scalar tree_4_3_u04_r17_network.node[27].content_store 	decision_yes[27] 	106
scalar tree_4_3_u04_r17_network.node[27].content_store 	decision_no[27] 	8741
scalar tree_4_3_u04_r17_network.node[27].content_store 	decision_ratio[27] 	0.011981462642704
scalar tree_4_3_u04_r17_network.node[28].core_layer 	interests[28] 	12568
scalar tree_4_3_u04_r17_network.node[28].core_layer 	data[28] 	8906
scalar tree_4_3_u04_r17_network.node[28].content_store 	p_hit[28] 	0.29137492043285
scalar tree_4_3_u04_r17_network.node[28].content_store 	hits[28] 	3662
scalar tree_4_3_u04_r17_network.node[28].content_store 	misses[28] 	8906
scalar tree_4_3_u04_r17_network.node[28].content_store 	decision_yes[28] 	124
scalar tree_4_3_u04_r17_network.node[28].content_store 	decision_no[28] 	8782
scalar tree_4_3_u04_r17_network.node[28].content_store 	decision_ratio[28] 	0.01392319784415
scalar tree_4_3_u04_r17_network.node[29].core_layer 	interests[29] 	12669
scalar tree_4_3_u04_r17_network.node[29].core_layer 	data[29] 	8882
scalar tree_4_3_u04_r17_network.node[29].content_store 	p_hit[29] 	0.29891862025416
scalar tree_4_3_u04_r17_network.node[29].content_store 	hits[29] 	3787
scalar tree_4_3_u04_r17_network.node[29].content_store 	misses[29] 	8882
scalar tree_4_3_u04_r17_network.node[29].content_store 	decision_yes[29] 	114
scalar tree_4_3_u04_r17_network.node[29].content_store 	decision_no[29] 	8768
scalar tree_4_3_u04_r17_network.node[29].content_store 	decision_ratio[29] 	0.01283494708399
scalar tree_4_3_u04_r17_network.node[30].core_layer 	interests[30] 	12576
scalar tree_4_3_u04_r17_network.node[30].core_layer 	data[30] 	8818
scalar tree_4_3_u04_r17_network.node[30].content_store 	p_hit[30] 	0.29890267175573
scalar tree_4_3_u04_r17_network.node[30].content_store 	hits[30] 	3759
scalar tree_4_3_u04_r17_network.node[30].content_store 	misses[30] 	8817
scalar tree_4_3_u04_r17_network.node[30].content_store 	decision_yes[30] 	133
scalar tree_4_3_u04_r17_network.node[30].content_store 	decision_no[30] 	8685
scalar tree_4_3_u04_r17_network.node[30].content_store 	decision_ratio[30] 	0.015082785212066
scalar tree_4_3_u04_r17_network.node[31].core_layer 	interests[31] 	12560
scalar tree_4_3_u04_r17_network.node[31].core_layer 	data[31] 	8846
scalar tree_4_3_u04_r17_network.node[31].content_store 	p_hit[31] 	0.29570063694268
scalar tree_4_3_u04_r17_network.node[31].content_store 	hits[31] 	3714
scalar tree_4_3_u04_r17_network.node[31].content_store 	misses[31] 	8846
scalar tree_4_3_u04_r17_network.node[31].content_store 	decision_yes[31] 	114
scalar tree_4_3_u04_r17_network.node[31].content_store 	decision_no[31] 	8732
scalar tree_4_3_u04_r17_network.node[31].content_store 	decision_ratio[31] 	0.01288718064662
scalar tree_4_3_u04_r17_network.node[32].core_layer 	interests[32] 	12516
scalar tree_4_3_u04_r17_network.node[32].core_layer 	data[32] 	8798
scalar tree_4_3_u04_r17_network.node[32].content_store 	p_hit[32] 	0.29705976350272
scalar tree_4_3_u04_r17_network.node[32].content_store 	hits[32] 	3718
scalar tree_4_3_u04_r17_network.node[32].content_store 	misses[32] 	8798
scalar tree_4_3_u04_r17_network.node[32].content_store 	decision_yes[32] 	109
scalar tree_4_3_u04_r17_network.node[32].content_store 	decision_no[32] 	8689
scalar tree_4_3_u04_r17_network.node[32].content_store 	decision_ratio[32] 	0.012389179358945
scalar tree_4_3_u04_r17_network.node[33].core_layer 	interests[33] 	12745
scalar tree_4_3_u04_r17_network.node[33].core_layer 	data[33] 	8894
scalar tree_4_3_u04_r17_network.node[33].content_store 	p_hit[33] 	0.30207924676344
scalar tree_4_3_u04_r17_network.node[33].content_store 	hits[33] 	3850
scalar tree_4_3_u04_r17_network.node[33].content_store 	misses[33] 	8895
scalar tree_4_3_u04_r17_network.node[33].content_store 	decision_yes[33] 	108
scalar tree_4_3_u04_r17_network.node[33].content_store 	decision_no[33] 	8786
scalar tree_4_3_u04_r17_network.node[33].content_store 	decision_ratio[33] 	0.012143017764785
scalar tree_4_3_u04_r17_network.node[34].core_layer 	interests[34] 	12566
scalar tree_4_3_u04_r17_network.node[34].core_layer 	data[34] 	8935
scalar tree_4_3_u04_r17_network.node[34].content_store 	p_hit[34] 	0.28903390100271
scalar tree_4_3_u04_r17_network.node[34].content_store 	hits[34] 	3632
scalar tree_4_3_u04_r17_network.node[34].content_store 	misses[34] 	8934
scalar tree_4_3_u04_r17_network.node[34].content_store 	decision_yes[34] 	106
scalar tree_4_3_u04_r17_network.node[34].content_store 	decision_no[34] 	8829
scalar tree_4_3_u04_r17_network.node[34].content_store 	decision_ratio[34] 	0.011863458310017
scalar tree_4_3_u04_r17_network.node[35].core_layer 	interests[35] 	12710
scalar tree_4_3_u04_r17_network.node[35].core_layer 	data[35] 	8954
scalar tree_4_3_u04_r17_network.node[35].content_store 	p_hit[35] 	0.2955153422502
scalar tree_4_3_u04_r17_network.node[35].content_store 	hits[35] 	3756
scalar tree_4_3_u04_r17_network.node[35].content_store 	misses[35] 	8954
scalar tree_4_3_u04_r17_network.node[35].content_store 	decision_yes[35] 	115
scalar tree_4_3_u04_r17_network.node[35].content_store 	decision_no[35] 	8839
scalar tree_4_3_u04_r17_network.node[35].content_store 	decision_ratio[35] 	0.012843421934331
scalar tree_4_3_u04_r17_network.node[36].core_layer 	interests[36] 	13267
scalar tree_4_3_u04_r17_network.node[36].core_layer 	data[36] 	8901
scalar tree_4_3_u04_r17_network.node[36].content_store 	p_hit[36] 	0.3290872088641
scalar tree_4_3_u04_r17_network.node[36].content_store 	hits[36] 	4366
scalar tree_4_3_u04_r17_network.node[36].content_store 	misses[36] 	8901
scalar tree_4_3_u04_r17_network.node[36].content_store 	decision_yes[36] 	109
scalar tree_4_3_u04_r17_network.node[36].content_store 	decision_no[36] 	8792
scalar tree_4_3_u04_r17_network.node[36].content_store 	decision_ratio[36] 	0.012245815076958
scalar tree_4_3_u04_r17_network.node[37].core_layer 	interests[37] 	12684
scalar tree_4_3_u04_r17_network.node[37].core_layer 	data[37] 	8956
scalar tree_4_3_u04_r17_network.node[37].content_store 	p_hit[37] 	0.29391359192684
scalar tree_4_3_u04_r17_network.node[37].content_store 	hits[37] 	3728
scalar tree_4_3_u04_r17_network.node[37].content_store 	misses[37] 	8956
scalar tree_4_3_u04_r17_network.node[37].content_store 	decision_yes[37] 	116
scalar tree_4_3_u04_r17_network.node[37].content_store 	decision_no[37] 	8840
scalar tree_4_3_u04_r17_network.node[37].content_store 	decision_ratio[37] 	0.012952210808397
scalar tree_4_3_u04_r17_network.node[38].core_layer 	interests[38] 	12563
scalar tree_4_3_u04_r17_network.node[38].core_layer 	data[38] 	8863
scalar tree_4_3_u04_r17_network.node[38].content_store 	p_hit[38] 	0.29459523999045
scalar tree_4_3_u04_r17_network.node[38].content_store 	hits[38] 	3701
scalar tree_4_3_u04_r17_network.node[38].content_store 	misses[38] 	8862
scalar tree_4_3_u04_r17_network.node[38].content_store 	decision_yes[38] 	108
scalar tree_4_3_u04_r17_network.node[38].content_store 	decision_no[38] 	8755
scalar tree_4_3_u04_r17_network.node[38].content_store 	decision_ratio[38] 	0.012185490240325
scalar tree_4_3_u04_r17_network.node[39].core_layer 	interests[39] 	12455
scalar tree_4_3_u04_r17_network.node[39].core_layer 	data[39] 	8927
scalar tree_4_3_u04_r17_network.node[39].content_store 	p_hit[39] 	0.28334002408671
scalar tree_4_3_u04_r17_network.node[39].content_store 	hits[39] 	3529
scalar tree_4_3_u04_r17_network.node[39].content_store 	misses[39] 	8926
scalar tree_4_3_u04_r17_network.node[39].content_store 	decision_yes[39] 	101
scalar tree_4_3_u04_r17_network.node[39].content_store 	decision_no[39] 	8826
scalar tree_4_3_u04_r17_network.node[39].content_store 	decision_ratio[39] 	0.011313991262462
scalar tree_4_3_u04_r17_network.client[13] 	hdistance[13] 	2.7415878239408
scalar tree_4_3_u04_r17_network.client[13] 	downloads[13] 	12155
scalar tree_4_3_u04_r17_network.client[13] 	avg_time[13] 	0.004275439145
scalar tree_4_3_u04_r17_network.client[14] 	hdistance[14] 	2.6249479556999
scalar tree_4_3_u04_r17_network.client[14] 	downloads[14] 	12009
scalar tree_4_3_u04_r17_network.client[14] 	avg_time[14] 	0.004134063135
scalar tree_4_3_u04_r17_network.client[15] 	hdistance[15] 	2.745446985447
scalar tree_4_3_u04_r17_network.client[15] 	downloads[15] 	12025
scalar tree_4_3_u04_r17_network.client[15] 	avg_time[15] 	0.004277917963
scalar tree_4_3_u04_r17_network.client[16] 	hdistance[16] 	2.6955981099229
scalar tree_4_3_u04_r17_network.client[16] 	downloads[16] 	12063
scalar tree_4_3_u04_r17_network.client[16] 	avg_time[16] 	0.004259799648
scalar tree_4_3_u04_r17_network.client[17] 	hdistance[17] 	2.6731159175397
scalar tree_4_3_u04_r17_network.client[17] 	downloads[17] 	11836
scalar tree_4_3_u04_r17_network.client[17] 	avg_time[17] 	0.004231145014
scalar tree_4_3_u04_r17_network.client[18] 	hdistance[18] 	2.6882964453387
scalar tree_4_3_u04_r17_network.client[18] 	downloads[18] 	11928
scalar tree_4_3_u04_r17_network.client[18] 	avg_time[18] 	0.004257709961
scalar tree_4_3_u04_r17_network.client[19] 	hdistance[19] 	2.6490981300678
scalar tree_4_3_u04_r17_network.client[19] 	downloads[19] 	12086
scalar tree_4_3_u04_r17_network.client[19] 	avg_time[19] 	0.00415744503
scalar tree_4_3_u04_r17_network.client[20] 	hdistance[20] 	2.5909996678844
scalar tree_4_3_u04_r17_network.client[20] 	downloads[20] 	12044
scalar tree_4_3_u04_r17_network.client[20] 	avg_time[20] 	0.004096444873
scalar tree_4_3_u04_r17_network.client[21] 	hdistance[21] 	2.6889058653764
scalar tree_4_3_u04_r17_network.client[21] 	downloads[21] 	11781
scalar tree_4_3_u04_r17_network.client[21] 	avg_time[21] 	0.004245626877
scalar tree_4_3_u04_r17_network.client[22] 	hdistance[22] 	2.7247153382451
scalar tree_4_3_u04_r17_network.client[22] 	downloads[22] 	11944
scalar tree_4_3_u04_r17_network.client[22] 	avg_time[22] 	0.004282816845
scalar tree_4_3_u04_r17_network.client[23] 	hdistance[23] 	2.7312045953708
scalar tree_4_3_u04_r17_network.client[23] 	downloads[23] 	11838
scalar tree_4_3_u04_r17_network.client[23] 	avg_time[23] 	0.004292614042
scalar tree_4_3_u04_r17_network.client[24] 	hdistance[24] 	2.638335885656
scalar tree_4_3_u04_r17_network.client[24] 	downloads[24] 	11754
scalar tree_4_3_u04_r17_network.client[24] 	avg_time[24] 	0.004158517499
scalar tree_4_3_u04_r17_network.client[25] 	hdistance[25] 	2.724917218543
scalar tree_4_3_u04_r17_network.client[25] 	downloads[25] 	12080
scalar tree_4_3_u04_r17_network.client[25] 	avg_time[25] 	0.004285261903
scalar tree_4_3_u04_r17_network.client[26] 	hdistance[26] 	2.7389207616197
scalar tree_4_3_u04_r17_network.client[26] 	downloads[26] 	12027
scalar tree_4_3_u04_r17_network.client[26] 	avg_time[26] 	0.004298492071
scalar tree_4_3_u04_r17_network.client[27] 	hdistance[27] 	2.7366622207402
scalar tree_4_3_u04_r17_network.client[27] 	downloads[27] 	11996
scalar tree_4_3_u04_r17_network.client[27] 	avg_time[27] 	0.004290760591
scalar tree_4_3_u04_r17_network.client[28] 	hdistance[28] 	2.6891165602956
scalar tree_4_3_u04_r17_network.client[28] 	downloads[28] 	11908
scalar tree_4_3_u04_r17_network.client[28] 	avg_time[28] 	0.004253595176
scalar tree_4_3_u04_r17_network.client[29] 	hdistance[29] 	2.6681156997158
scalar tree_4_3_u04_r17_network.client[29] 	downloads[29] 	11962
scalar tree_4_3_u04_r17_network.client[29] 	avg_time[29] 	0.004223371032
scalar tree_4_3_u04_r17_network.client[30] 	hdistance[30] 	2.6580894719139
scalar tree_4_3_u04_r17_network.client[30] 	downloads[30] 	11892
scalar tree_4_3_u04_r17_network.client[30] 	avg_time[30] 	0.004209381483
scalar tree_4_3_u04_r17_network.client[31] 	hdistance[31] 	2.6876415806695
scalar tree_4_3_u04_r17_network.client[31] 	downloads[31] 	11919
scalar tree_4_3_u04_r17_network.client[31] 	avg_time[31] 	0.004252831177
scalar tree_4_3_u04_r17_network.client[32] 	hdistance[32] 	2.6944444444444
scalar tree_4_3_u04_r17_network.client[32] 	downloads[32] 	11916
scalar tree_4_3_u04_r17_network.client[32] 	avg_time[32] 	0.004252430724
scalar tree_4_3_u04_r17_network.client[33] 	hdistance[33] 	2.6886386220603
scalar tree_4_3_u04_r17_network.client[33] 	downloads[33] 	12076
scalar tree_4_3_u04_r17_network.client[33] 	avg_time[33] 	0.004240579557
scalar tree_4_3_u04_r17_network.client[34] 	hdistance[34] 	2.6898543445505
scalar tree_4_3_u04_r17_network.client[34] 	downloads[34] 	11946
scalar tree_4_3_u04_r17_network.client[34] 	avg_time[34] 	0.004259498119
scalar tree_4_3_u04_r17_network.client[35] 	hdistance[35] 	2.656592275385
scalar tree_4_3_u04_r17_network.client[35] 	downloads[35] 	12143
scalar tree_4_3_u04_r17_network.client[35] 	avg_time[35] 	0.004216582648
scalar tree_4_3_u04_r17_network.client[36] 	hdistance[36] 	2.6251038378468
scalar tree_4_3_u04_r17_network.client[36] 	downloads[36] 	12038
scalar tree_4_3_u04_r17_network.client[36] 	avg_time[36] 	0.004140884151
scalar tree_4_3_u04_r17_network.client[37] 	hdistance[37] 	2.7032594308405
scalar tree_4_3_u04_r17_network.client[37] 	downloads[37] 	12088
scalar tree_4_3_u04_r17_network.client[37] 	avg_time[37] 	0.004232128028
scalar tree_4_3_u04_r17_network.client[38] 	hdistance[38] 	2.6927355749274
scalar tree_4_3_u04_r17_network.client[38] 	downloads[38] 	12045
scalar tree_4_3_u04_r17_network.client[38] 	avg_time[38] 	0.004215522109
scalar tree_4_3_u04_r17_network.client[39] 	hdistance[39] 	2.7303126567464
scalar tree_4_3_u04_r17_network.client[39] 	downloads[39] 	11962
scalar tree_4_3_u04_r17_network.client[39] 	avg_time[39] 	0.004263665327
