version 2
run General-68-20160822-10:49:08-13100
attr D lcd
attr F spr
attr R lru
attr a 0.9
attr configname General
attr datetime 20160822-10:49:08
attr experiment General
attr inifile hw5115/scenario_B/bus.ini
attr iterationvars "$net=bus, $rep=0, $a=0.9, $F=spr, $D=lcd, $R=lru, $window=60, $variance=0.05, $mytime=600"
attr iterationvars2 "$net=bus, $rep=0, $a=0.9, $F=spr, $D=lcd, $R=lru, $window=60, $variance=0.05, $mytime=600, $repetition=0"
attr measurement "$net=bus, $rep=0, $a=0.9, $F=spr, $D=lcd, $R=lru, $window=60, $variance=0.05, $mytime=600"
attr mytime 600
attr net bus
attr network networks.${net=bus}_network
attr processid 13100
attr rep 0
attr repetition 0
attr replication #0
attr resultdir results
attr runnumber 68
attr seedset 0
attr variance 0.05
attr window 60

scalar . 	a 	0.9
scalar . 	mytime 	600
scalar . 	rep 	0
scalar . 	variance 	0.05
scalar . 	window 	60
scalar bus_network.content_distribution 	repo-0 	9
scalar bus_network.content_distribution 	client-0 	5
scalar bus_network.content_distribution 	client-1 	8
scalar bus_network.content_distribution 	client-2 	9
scalar bus_network.content_distribution 	client-3 	0
scalar bus_network.content_distribution 	client-4 	1
scalar bus_network.content_distribution 	client-5 	7
scalar bus_network.content_distribution 	client-6 	6
scalar bus_network.content_distribution 	client-7 	2
scalar bus_network.content_distribution 	client-8 	4
scalar bus_network.content_distribution 	client-9 	3
scalar bus_network.content_distribution 	repo-0_card 	100000
scalar bus_network.content_distribution 	repo-0_price 	0
scalar bus_network.statistics 	stabilization_time 	533.9
scalar bus_network.statistics 	p_hit 	0.099708023770729
scalar bus_network.statistics 	interests 	49801
scalar bus_network.statistics 	data 	37833.1
scalar bus_network.statistics 	hdistance 	3.8749333747586
scalar bus_network.statistics 	avg_time 	0.00631067983
scalar bus_network.statistics 	downloads 	119685
scalar bus_network.statistics 	total_cost 	0
scalar bus_network.statistics 	total_replicas 	100000
scalar bus_network.statistics 	inner_hit 	0.28110456615282
scalar bus_network.node[0].core_layer 	interests[0] 	12094
scalar bus_network.node[0].core_layer 	data[0] 	8675
scalar bus_network.node[0].core_layer 	repo_int[0] 	86041
scalar bus_network.node[0].content_store 	p_hit[0] 	0.28270216636349
scalar bus_network.node[0].content_store 	hits[0] 	3419
scalar bus_network.node[0].content_store 	misses[0] 	8675
scalar bus_network.node[0].content_store 	decision_yes[0] 	220
scalar bus_network.node[0].content_store 	decision_no[0] 	8455
scalar bus_network.node[0].content_store 	decision_ratio[0] 	0.02536023054755
scalar bus_network.node[1].core_layer 	interests[1] 	20533
scalar bus_network.node[1].core_layer 	data[1] 	16947
scalar bus_network.node[1].content_store 	p_hit[1] 	0.1746456923002
scalar bus_network.node[1].content_store 	hits[1] 	3586
scalar bus_network.node[1].content_store 	misses[1] 	16947
scalar bus_network.node[1].content_store 	decision_yes[1] 	320
scalar bus_network.node[1].content_store 	decision_no[1] 	16627
scalar bus_network.node[1].content_store 	decision_ratio[1] 	0.018882398064554
scalar bus_network.node[2].core_layer 	interests[2] 	28892
scalar bus_network.node[2].core_layer 	data[2] 	25211
scalar bus_network.node[2].content_store 	p_hit[2] 	0.12737089851862
scalar bus_network.node[2].content_store 	hits[2] 	3680
scalar bus_network.node[2].content_store 	misses[2] 	25212
scalar bus_network.node[2].content_store 	decision_yes[2] 	428
scalar bus_network.node[2].content_store 	decision_no[2] 	24783
scalar bus_network.node[2].content_store 	decision_ratio[2] 	0.016976716512633
scalar bus_network.node[3].core_layer 	interests[3] 	37229
scalar bus_network.node[3].core_layer 	data[3] 	33670
scalar bus_network.node[3].content_store 	p_hit[3] 	0.095543796502726
scalar bus_network.node[3].content_store 	hits[3] 	3557
scalar bus_network.node[3].content_store 	misses[3] 	33672
scalar bus_network.node[3].content_store 	decision_yes[3] 	481
scalar bus_network.node[3].content_store 	decision_no[3] 	33189
scalar bus_network.node[3].content_store 	decision_ratio[3] 	0.014285714285714
scalar bus_network.node[4].core_layer 	interests[4] 	45677
scalar bus_network.node[4].core_layer 	data[4] 	42006
scalar bus_network.node[4].content_store 	p_hit[4] 	0.080412461413841
scalar bus_network.node[4].content_store 	hits[4] 	3673
scalar bus_network.node[4].content_store 	misses[4] 	42004
scalar bus_network.node[4].content_store 	decision_yes[4] 	529
scalar bus_network.node[4].content_store 	decision_no[4] 	41477
scalar bus_network.node[4].content_store 	decision_ratio[4] 	0.012593439032519
scalar bus_network.node[5].core_layer 	interests[5] 	54053
scalar bus_network.node[5].core_layer 	data[5] 	50405
scalar bus_network.node[5].content_store 	p_hit[5] 	0.067526316763177
scalar bus_network.node[5].content_store 	hits[5] 	3650
scalar bus_network.node[5].content_store 	misses[5] 	50403
scalar bus_network.node[5].content_store 	decision_yes[5] 	587
scalar bus_network.node[5].content_store 	decision_no[5] 	49818
scalar bus_network.node[5].content_store 	decision_ratio[5] 	0.011645670072413
scalar bus_network.node[6].core_layer 	interests[6] 	62423
scalar bus_network.node[6].core_layer 	data[6] 	58728
scalar bus_network.node[6].content_store 	p_hit[6] 	0.059160886211813
scalar bus_network.node[6].content_store 	hits[6] 	3693
scalar bus_network.node[6].content_store 	misses[6] 	58730
scalar bus_network.node[6].content_store 	decision_yes[6] 	641
scalar bus_network.node[6].content_store 	decision_no[6] 	58087
scalar bus_network.node[6].content_store 	decision_ratio[6] 	0.010914725514235
scalar bus_network.node[7].core_layer 	interests[7] 	70676
scalar bus_network.node[7].core_layer 	data[7] 	67020
scalar bus_network.node[7].content_store 	p_hit[7] 	0.051714867847643
scalar bus_network.node[7].content_store 	hits[7] 	3655
scalar bus_network.node[7].content_store 	misses[7] 	67021
scalar bus_network.node[7].content_store 	decision_yes[7] 	670
scalar bus_network.node[7].content_store 	decision_no[7] 	66350
scalar bus_network.node[7].content_store 	decision_ratio[7] 	0.0099970158161743
scalar bus_network.node[8].core_layer 	interests[8] 	78950
scalar bus_network.node[8].core_layer 	data[8] 	75669
scalar bus_network.node[8].content_store 	p_hit[8] 	0.041519949335022
scalar bus_network.node[8].content_store 	hits[8] 	3278
scalar bus_network.node[8].content_store 	misses[8] 	75672
scalar bus_network.node[8].content_store 	decision_yes[8] 	828
scalar bus_network.node[8].content_store 	decision_no[8] 	74841
scalar bus_network.node[8].content_store 	decision_ratio[8] 	0.010942393846886
scalar bus_network.node[9].core_layer 	interests[9] 	87483
scalar bus_network.node[9].core_layer 	repo_load[9] 	86041
scalar bus_network.node[9].core_layer 	data[9] 	0
scalar bus_network.node[9].content_store 	p_hit[9] 	0.016483202450762
scalar bus_network.node[9].content_store 	hits[9] 	1442
scalar bus_network.node[9].content_store 	misses[9] 	86041
scalar bus_network.node[9].content_store 	decision_yes[9] 	86041
scalar bus_network.node[9].content_store 	decision_no[9] 	0
scalar bus_network.node[9].content_store 	decision_ratio[9] 	1
scalar bus_network.client[0] 	hdistance[0] 	6.7964279808169
scalar bus_network.client[0] 	downloads[0] 	12094
scalar bus_network.client[0] 	avg_time[0] 	0.01228042712
scalar bus_network.client[1] 	hdistance[1] 	6.1288472889788
scalar bus_network.client[1] 	downloads[1] 	11859
scalar bus_network.client[1] 	avg_time[1] 	0.010940882443
scalar bus_network.client[2] 	hdistance[2] 	5.4589820860539
scalar bus_network.client[2] 	downloads[2] 	11946
scalar bus_network.client[2] 	avg_time[2] 	0.009598975801
scalar bus_network.client[3] 	hdistance[3] 	4.9455074875208
scalar bus_network.client[3] 	downloads[3] 	12020
scalar bus_network.client[3] 	avg_time[3] 	0.008521793994
scalar bus_network.client[4] 	hdistance[4] 	4.2460654509118
scalar bus_network.client[4] 	downloads[4] 	12009
scalar bus_network.client[4] 	avg_time[4] 	0.007112852245
scalar bus_network.client[5] 	hdistance[5] 	3.5783882479874
scalar bus_network.client[5] 	downloads[5] 	12049
scalar bus_network.client[5] 	avg_time[5] 	0.005763130843
scalar bus_network.client[6] 	hdistance[6] 	2.8905066977286
scalar bus_network.client[6] 	downloads[6] 	12019
scalar bus_network.client[6] 	avg_time[6] 	0.004362667745
scalar bus_network.client[7] 	hdistance[7] 	2.2053235121788
scalar bus_network.client[7] 	downloads[7] 	11947
scalar bus_network.client[7] 	avg_time[7] 	0.002963324846
scalar bus_network.client[8] 	hdistance[8] 	1.5512616313186
scalar bus_network.client[8] 	downloads[8] 	11929
scalar bus_network.client[8] 	avg_time[8] 	0.001562743267
scalar bus_network.client[9] 	hdistance[9] 	0.94802336409041
scalar bus_network.client[9] 	downloads[9] 	11813
scalar bus_network.client[9] 	avg_time[9] 	0
