version 2
run General-142-20160819-13:09:46-2054
attr a 0.9
attr cd lcd
attr configname General
attr cr lru
attr datetime 20160819-13:09:46
attr experiment General
attr fsize 1
attr inifile hw5115/scenario_A/NRR-LCD.ini
attr iterationvars "$name=tree_4_3, $un=07, $rep=3, $cd=lcd, $cr=lru, $fsize=1, $a=0.9, $sl=nrr, $ttl=1000, $variance=0.05"
attr iterationvars2 "$name=tree_4_3, $un=07, $rep=3, $cd=lcd, $cr=lru, $fsize=1, $a=0.9, $sl=nrr, $ttl=1000, $variance=0.05, $repetition=0"
attr measurement "$name=tree_4_3, $un=07, $rep=3, $cd=lcd, $cr=lru, $fsize=1, $a=0.9, $sl=nrr, $ttl=1000, $variance=0.05"
attr name tree_4_3
attr network networks.${name}_u${un}_r${rep}_network
attr processid 2054
attr rep 3
attr repetition 0
attr replication #0
attr resultdir results
attr runnumber 142
attr seedset 3
attr sl nrr
attr ttl 1000
attr un 07
attr variance 0.05

scalar . 	a 	0.9
scalar . 	fsize 	1
scalar . 	rep 	3
scalar . 	ttl 	1000
scalar . 	un 	07
scalar . 	variance 	0.05
scalar tree_4_3_u07_r3_network.content_distribution 	repo-0 	0
scalar tree_4_3_u07_r3_network.content_distribution 	client-0 	13
scalar tree_4_3_u07_r3_network.content_distribution 	client-1 	14
scalar tree_4_3_u07_r3_network.content_distribution 	client-2 	15
scalar tree_4_3_u07_r3_network.content_distribution 	client-3 	16
scalar tree_4_3_u07_r3_network.content_distribution 	client-4 	17
scalar tree_4_3_u07_r3_network.content_distribution 	client-5 	18
scalar tree_4_3_u07_r3_network.content_distribution 	client-6 	19
scalar tree_4_3_u07_r3_network.content_distribution 	client-7 	20
scalar tree_4_3_u07_r3_network.content_distribution 	client-8 	21
scalar tree_4_3_u07_r3_network.content_distribution 	client-9 	22
scalar tree_4_3_u07_r3_network.content_distribution 	client-10 	23
scalar tree_4_3_u07_r3_network.content_distribution 	client-11 	24
scalar tree_4_3_u07_r3_network.content_distribution 	client-12 	25
scalar tree_4_3_u07_r3_network.content_distribution 	client-13 	26
scalar tree_4_3_u07_r3_network.content_distribution 	client-14 	27
scalar tree_4_3_u07_r3_network.content_distribution 	client-15 	28
scalar tree_4_3_u07_r3_network.content_distribution 	client-16 	29
scalar tree_4_3_u07_r3_network.content_distribution 	client-17 	30
scalar tree_4_3_u07_r3_network.content_distribution 	client-18 	31
scalar tree_4_3_u07_r3_network.content_distribution 	client-19 	32
scalar tree_4_3_u07_r3_network.content_distribution 	client-20 	33
scalar tree_4_3_u07_r3_network.content_distribution 	client-21 	34
scalar tree_4_3_u07_r3_network.content_distribution 	client-22 	35
scalar tree_4_3_u07_r3_network.content_distribution 	client-23 	36
scalar tree_4_3_u07_r3_network.content_distribution 	client-24 	37
scalar tree_4_3_u07_r3_network.content_distribution 	client-25 	38
scalar tree_4_3_u07_r3_network.content_distribution 	client-26 	39
scalar tree_4_3_u07_r3_network.content_distribution 	repo-0_card 	100000
scalar tree_4_3_u07_r3_network.content_distribution 	repo-0_price 	0
scalar tree_4_3_u07_r3_network.statistics 	stabilization_time 	808.1
scalar tree_4_3_u07_r3_network.statistics 	p_hit 	0.21984188827414
scalar tree_4_3_u07_r3_network.statistics 	interests 	24840.5
scalar tree_4_3_u07_r3_network.statistics 	data 	16750.15
scalar tree_4_3_u07_r3_network.statistics 	hdistance 	2.687170882316
scalar tree_4_3_u07_r3_network.statistics 	avg_time 	0.004140752276
scalar tree_4_3_u07_r3_network.statistics 	downloads 	323614
scalar tree_4_3_u07_r3_network.statistics 	total_cost 	0
scalar tree_4_3_u07_r3_network.statistics 	total_replicas 	100000
scalar tree_4_3_u07_r3_network.statistics 	inner_hit 	0.3832467074972
scalar tree_4_3_u07_r3_network.node[0].core_layer 	interests[0] 	200846
scalar tree_4_3_u07_r3_network.node[0].core_layer 	repo_load[0] 	199590
scalar tree_4_3_u07_r3_network.node[0].core_layer 	data[0] 	0
scalar tree_4_3_u07_r3_network.node[0].core_layer 	repo_int[0] 	199590
scalar tree_4_3_u07_r3_network.node[0].content_store 	p_hit[0] 	0.0062535474941
scalar tree_4_3_u07_r3_network.node[0].content_store 	hits[0] 	1256
scalar tree_4_3_u07_r3_network.node[0].content_store 	misses[0] 	199590
scalar tree_4_3_u07_r3_network.node[0].content_store 	decision_yes[0] 	199590
scalar tree_4_3_u07_r3_network.node[0].content_store 	decision_no[0] 	0
scalar tree_4_3_u07_r3_network.node[0].content_store 	decision_ratio[0] 	1
scalar tree_4_3_u07_r3_network.node[1].core_layer 	interests[1] 	107451
scalar tree_4_3_u07_r3_network.node[1].core_layer 	data[1] 	105568
scalar tree_4_3_u07_r3_network.node[1].content_store 	p_hit[1] 	0.017505653739844
scalar tree_4_3_u07_r3_network.node[1].content_store 	hits[1] 	1881
scalar tree_4_3_u07_r3_network.node[1].content_store 	misses[1] 	105570
scalar tree_4_3_u07_r3_network.node[1].content_store 	decision_yes[1] 	1902
scalar tree_4_3_u07_r3_network.node[1].content_store 	decision_no[1] 	103666
scalar tree_4_3_u07_r3_network.node[1].content_store 	decision_ratio[1] 	0.018016823279782
scalar tree_4_3_u07_r3_network.node[2].core_layer 	interests[2] 	87649
scalar tree_4_3_u07_r3_network.node[2].core_layer 	data[2] 	84970
scalar tree_4_3_u07_r3_network.node[2].content_store 	p_hit[2] 	0.030542276580452
scalar tree_4_3_u07_r3_network.node[2].content_store 	hits[2] 	2677
scalar tree_4_3_u07_r3_network.node[2].content_store 	misses[2] 	84972
scalar tree_4_3_u07_r3_network.node[2].content_store 	decision_yes[2] 	2679
scalar tree_4_3_u07_r3_network.node[2].content_store 	decision_no[2] 	82290
scalar tree_4_3_u07_r3_network.node[2].content_store 	decision_ratio[2] 	0.031529145923808
scalar tree_4_3_u07_r3_network.node[3].core_layer 	interests[3] 	17970
scalar tree_4_3_u07_r3_network.node[3].core_layer 	data[3] 	16142
scalar tree_4_3_u07_r3_network.node[3].content_store 	p_hit[3] 	0.10172509738453
scalar tree_4_3_u07_r3_network.node[3].content_store 	hits[3] 	1828
scalar tree_4_3_u07_r3_network.node[3].content_store 	misses[3] 	16142
scalar tree_4_3_u07_r3_network.node[3].content_store 	decision_yes[3] 	1007
scalar tree_4_3_u07_r3_network.node[3].content_store 	decision_no[3] 	15135
scalar tree_4_3_u07_r3_network.node[3].content_store 	decision_ratio[3] 	0.062383843389915
scalar tree_4_3_u07_r3_network.node[4].core_layer 	interests[4] 	34065
scalar tree_4_3_u07_r3_network.node[4].core_layer 	data[4] 	32370
scalar tree_4_3_u07_r3_network.node[4].content_store 	p_hit[4] 	0.049787171583737
scalar tree_4_3_u07_r3_network.node[4].content_store 	hits[4] 	1696
scalar tree_4_3_u07_r3_network.node[4].content_store 	misses[4] 	32369
scalar tree_4_3_u07_r3_network.node[4].content_store 	decision_yes[4] 	1697
scalar tree_4_3_u07_r3_network.node[4].content_store 	decision_no[4] 	30673
scalar tree_4_3_u07_r3_network.node[4].content_store 	decision_ratio[4] 	0.052425084955205
scalar tree_4_3_u07_r3_network.node[5].core_layer 	interests[5] 	36965
scalar tree_4_3_u07_r3_network.node[5].core_layer 	data[5] 	33946
scalar tree_4_3_u07_r3_network.node[5].content_store 	p_hit[5] 	0.081671851751657
scalar tree_4_3_u07_r3_network.node[5].content_store 	hits[5] 	3019
scalar tree_4_3_u07_r3_network.node[5].content_store 	misses[5] 	33946
scalar tree_4_3_u07_r3_network.node[5].content_store 	decision_yes[5] 	3480
scalar tree_4_3_u07_r3_network.node[5].content_store 	decision_no[5] 	30466
scalar tree_4_3_u07_r3_network.node[5].content_store 	decision_ratio[5] 	0.10251576032522
scalar tree_4_3_u07_r3_network.node[6].core_layer 	interests[6] 	11349
scalar tree_4_3_u07_r3_network.node[6].core_layer 	data[6] 	9374
scalar tree_4_3_u07_r3_network.node[6].content_store 	p_hit[6] 	0.17402414309631
scalar tree_4_3_u07_r3_network.node[6].content_store 	hits[6] 	1975
scalar tree_4_3_u07_r3_network.node[6].content_store 	misses[6] 	9374
scalar tree_4_3_u07_r3_network.node[6].content_store 	decision_yes[6] 	1592
scalar tree_4_3_u07_r3_network.node[6].content_store 	decision_no[6] 	7782
scalar tree_4_3_u07_r3_network.node[6].content_store 	decision_ratio[6] 	0.16983144868786
scalar tree_4_3_u07_r3_network.node[7].core_layer 	interests[7] 	42416
scalar tree_4_3_u07_r3_network.node[7].core_layer 	data[7] 	40278
scalar tree_4_3_u07_r3_network.node[7].content_store 	p_hit[7] 	0.050405507355715
scalar tree_4_3_u07_r3_network.node[7].content_store 	hits[7] 	2138
scalar tree_4_3_u07_r3_network.node[7].content_store 	misses[7] 	40278
scalar tree_4_3_u07_r3_network.node[7].content_store 	decision_yes[7] 	2046
scalar tree_4_3_u07_r3_network.node[7].content_store 	decision_no[7] 	38232
scalar tree_4_3_u07_r3_network.node[7].content_store 	decision_ratio[7] 	0.050796961120215
scalar tree_4_3_u07_r3_network.node[8].core_layer 	interests[8] 	18261
scalar tree_4_3_u07_r3_network.node[8].core_layer 	data[8] 	16563
scalar tree_4_3_u07_r3_network.node[8].content_store 	p_hit[8] 	0.092985050106785
scalar tree_4_3_u07_r3_network.node[8].content_store 	hits[8] 	1698
scalar tree_4_3_u07_r3_network.node[8].content_store 	misses[8] 	16563
scalar tree_4_3_u07_r3_network.node[8].content_store 	decision_yes[8] 	1113
scalar tree_4_3_u07_r3_network.node[8].content_store 	decision_no[8] 	15450
scalar tree_4_3_u07_r3_network.node[8].content_store 	decision_ratio[8] 	0.067197971381996
scalar tree_4_3_u07_r3_network.node[9].core_layer 	interests[9] 	19517
scalar tree_4_3_u07_r3_network.node[9].core_layer 	data[9] 	17231
scalar tree_4_3_u07_r3_network.node[9].content_store 	p_hit[9] 	0.1170774196854
scalar tree_4_3_u07_r3_network.node[9].content_store 	hits[9] 	2285
scalar tree_4_3_u07_r3_network.node[9].content_store 	misses[9] 	17232
scalar tree_4_3_u07_r3_network.node[9].content_store 	decision_yes[9] 	1877
scalar tree_4_3_u07_r3_network.node[9].content_store 	decision_no[9] 	15354
scalar tree_4_3_u07_r3_network.node[9].content_store 	decision_ratio[9] 	0.10893157680924
scalar tree_4_3_u07_r3_network.node[10].core_layer 	interests[10] 	42888
scalar tree_4_3_u07_r3_network.node[10].core_layer 	data[10] 	40393
scalar tree_4_3_u07_r3_network.node[10].content_store 	p_hit[10] 	0.058174780824473
scalar tree_4_3_u07_r3_network.node[10].content_store 	hits[10] 	2495
scalar tree_4_3_u07_r3_network.node[10].content_store 	misses[10] 	40393
scalar tree_4_3_u07_r3_network.node[10].content_store 	decision_yes[10] 	2891
scalar tree_4_3_u07_r3_network.node[10].content_store 	decision_no[10] 	37502
scalar tree_4_3_u07_r3_network.node[10].content_store 	decision_ratio[10] 	0.071571806996262
scalar tree_4_3_u07_r3_network.node[11].core_layer 	interests[11] 	20301
scalar tree_4_3_u07_r3_network.node[11].core_layer 	data[11] 	17874
scalar tree_4_3_u07_r3_network.node[11].content_store 	p_hit[11] 	0.11955076104625
scalar tree_4_3_u07_r3_network.node[11].content_store 	hits[11] 	2427
scalar tree_4_3_u07_r3_network.node[11].content_store 	misses[11] 	17874
scalar tree_4_3_u07_r3_network.node[11].content_store 	decision_yes[11] 	2251
scalar tree_4_3_u07_r3_network.node[11].content_store 	decision_no[11] 	15623
scalar tree_4_3_u07_r3_network.node[11].content_store 	decision_ratio[11] 	0.1259371153631
scalar tree_4_3_u07_r3_network.node[12].core_layer 	interests[12] 	18514
scalar tree_4_3_u07_r3_network.node[12].core_layer 	data[12] 	16854
scalar tree_4_3_u07_r3_network.node[12].content_store 	p_hit[12] 	0.08966187749811
scalar tree_4_3_u07_r3_network.node[12].content_store 	hits[12] 	1660
scalar tree_4_3_u07_r3_network.node[12].content_store 	misses[12] 	16854
scalar tree_4_3_u07_r3_network.node[12].content_store 	decision_yes[12] 	1252
scalar tree_4_3_u07_r3_network.node[12].content_store 	decision_no[12] 	15602
scalar tree_4_3_u07_r3_network.node[12].content_store 	decision_ratio[12] 	0.074285036193189
scalar tree_4_3_u07_r3_network.node[13].core_layer 	interests[13] 	12259
scalar tree_4_3_u07_r3_network.node[13].core_layer 	data[13] 	8766
scalar tree_4_3_u07_r3_network.node[13].content_store 	p_hit[13] 	0.2849335182315
scalar tree_4_3_u07_r3_network.node[13].content_store 	hits[13] 	3493
scalar tree_4_3_u07_r3_network.node[13].content_store 	misses[13] 	8766
scalar tree_4_3_u07_r3_network.node[13].content_store 	decision_yes[13] 	381
scalar tree_4_3_u07_r3_network.node[13].content_store 	decision_no[13] 	8385
scalar tree_4_3_u07_r3_network.node[13].content_store 	decision_ratio[13] 	0.043463381245722
scalar tree_4_3_u07_r3_network.node[14].core_layer 	interests[14] 	12866
scalar tree_4_3_u07_r3_network.node[14].core_layer 	data[14] 	8928
scalar tree_4_3_u07_r3_network.node[14].content_store 	p_hit[14] 	0.30607803513135
scalar tree_4_3_u07_r3_network.node[14].content_store 	hits[14] 	3938
scalar tree_4_3_u07_r3_network.node[14].content_store 	misses[14] 	8928
scalar tree_4_3_u07_r3_network.node[14].content_store 	decision_yes[14] 	682
scalar tree_4_3_u07_r3_network.node[14].content_store 	decision_no[14] 	8246
scalar tree_4_3_u07_r3_network.node[14].content_store 	decision_ratio[14] 	0.076388888888889
scalar tree_4_3_u07_r3_network.node[15].core_layer 	interests[15] 	12368
scalar tree_4_3_u07_r3_network.node[15].core_layer 	data[15] 	8904
scalar tree_4_3_u07_r3_network.node[15].content_store 	p_hit[15] 	0.28007761966365
scalar tree_4_3_u07_r3_network.node[15].content_store 	hits[15] 	3464
scalar tree_4_3_u07_r3_network.node[15].content_store 	misses[15] 	8904
scalar tree_4_3_u07_r3_network.node[15].content_store 	decision_yes[15] 	407
scalar tree_4_3_u07_r3_network.node[15].content_store 	decision_no[15] 	8497
scalar tree_4_3_u07_r3_network.node[15].content_store 	decision_ratio[15] 	0.045709793351303
scalar tree_4_3_u07_r3_network.node[16].core_layer 	interests[16] 	12429
scalar tree_4_3_u07_r3_network.node[16].core_layer 	data[16] 	8853
scalar tree_4_3_u07_r3_network.node[16].content_store 	p_hit[16] 	0.28771421675115
scalar tree_4_3_u07_r3_network.node[16].content_store 	hits[16] 	3576
scalar tree_4_3_u07_r3_network.node[16].content_store 	misses[16] 	8853
scalar tree_4_3_u07_r3_network.node[16].content_store 	decision_yes[16] 	432
scalar tree_4_3_u07_r3_network.node[16].content_store 	decision_no[16] 	8421
scalar tree_4_3_u07_r3_network.node[16].content_store 	decision_ratio[16] 	0.048797017960014
scalar tree_4_3_u07_r3_network.node[17].core_layer 	interests[17] 	12537
scalar tree_4_3_u07_r3_network.node[17].core_layer 	data[17] 	8978
scalar tree_4_3_u07_r3_network.node[17].content_store 	p_hit[17] 	0.28395947993938
scalar tree_4_3_u07_r3_network.node[17].content_store 	hits[17] 	3560
scalar tree_4_3_u07_r3_network.node[17].content_store 	misses[17] 	8977
scalar tree_4_3_u07_r3_network.node[17].content_store 	decision_yes[17] 	419
scalar tree_4_3_u07_r3_network.node[17].content_store 	decision_no[17] 	8559
scalar tree_4_3_u07_r3_network.node[17].content_store 	decision_ratio[17] 	0.046669636890176
scalar tree_4_3_u07_r3_network.node[18].core_layer 	interests[18] 	12639
scalar tree_4_3_u07_r3_network.node[18].core_layer 	data[18] 	8871
scalar tree_4_3_u07_r3_network.node[18].content_store 	p_hit[18] 	0.29812485164966
scalar tree_4_3_u07_r3_network.node[18].content_store 	hits[18] 	3768
scalar tree_4_3_u07_r3_network.node[18].content_store 	misses[18] 	8871
scalar tree_4_3_u07_r3_network.node[18].content_store 	decision_yes[18] 	721
scalar tree_4_3_u07_r3_network.node[18].content_store 	decision_no[18] 	8150
scalar tree_4_3_u07_r3_network.node[18].content_store 	decision_ratio[18] 	0.081276068087025
scalar tree_4_3_u07_r3_network.node[19].core_layer 	interests[19] 	12467
scalar tree_4_3_u07_r3_network.node[19].core_layer 	data[19] 	8782
scalar tree_4_3_u07_r3_network.node[19].content_store 	p_hit[19] 	0.29566054383573
scalar tree_4_3_u07_r3_network.node[19].content_store 	hits[19] 	3686
scalar tree_4_3_u07_r3_network.node[19].content_store 	misses[19] 	8781
scalar tree_4_3_u07_r3_network.node[19].content_store 	decision_yes[19] 	706
scalar tree_4_3_u07_r3_network.node[19].content_store 	decision_no[19] 	8076
scalar tree_4_3_u07_r3_network.node[19].content_store 	decision_ratio[19] 	0.080391710316557
scalar tree_4_3_u07_r3_network.node[20].core_layer 	interests[20] 	12801
scalar tree_4_3_u07_r3_network.node[20].core_layer 	data[20] 	9094
scalar tree_4_3_u07_r3_network.node[20].content_store 	p_hit[20] 	0.28958675103508
scalar tree_4_3_u07_r3_network.node[20].content_store 	hits[20] 	3707
scalar tree_4_3_u07_r3_network.node[20].content_store 	misses[20] 	9094
scalar tree_4_3_u07_r3_network.node[20].content_store 	decision_yes[20] 	824
scalar tree_4_3_u07_r3_network.node[20].content_store 	decision_no[20] 	8270
scalar tree_4_3_u07_r3_network.node[20].content_store 	decision_ratio[20] 	0.090609192874423
scalar tree_4_3_u07_r3_network.node[21].core_layer 	interests[21] 	12113
scalar tree_4_3_u07_r3_network.node[21].core_layer 	data[21] 	8727
scalar tree_4_3_u07_r3_network.node[21].content_store 	p_hit[21] 	0.27953438454553
scalar tree_4_3_u07_r3_network.node[21].content_store 	hits[21] 	3386
scalar tree_4_3_u07_r3_network.node[21].content_store 	misses[21] 	8727
scalar tree_4_3_u07_r3_network.node[21].content_store 	decision_yes[21] 	378
scalar tree_4_3_u07_r3_network.node[21].content_store 	decision_no[21] 	8349
scalar tree_4_3_u07_r3_network.node[21].content_store 	decision_ratio[21] 	0.043313853557924
scalar tree_4_3_u07_r3_network.node[22].core_layer 	interests[22] 	12144
scalar tree_4_3_u07_r3_network.node[22].core_layer 	data[22] 	8687
scalar tree_4_3_u07_r3_network.node[22].content_store 	p_hit[22] 	0.28458498023715
scalar tree_4_3_u07_r3_network.node[22].content_store 	hits[22] 	3456
scalar tree_4_3_u07_r3_network.node[22].content_store 	misses[22] 	8688
scalar tree_4_3_u07_r3_network.node[22].content_store 	decision_yes[22] 	354
scalar tree_4_3_u07_r3_network.node[22].content_store 	decision_no[22] 	8333
scalar tree_4_3_u07_r3_network.node[22].content_store 	decision_ratio[22] 	0.04075054679406
scalar tree_4_3_u07_r3_network.node[23].core_layer 	interests[23] 	12297
scalar tree_4_3_u07_r3_network.node[23].core_layer 	data[23] 	8779
scalar tree_4_3_u07_r3_network.node[23].content_store 	p_hit[23] 	0.28608603724486
scalar tree_4_3_u07_r3_network.node[23].content_store 	hits[23] 	3518
scalar tree_4_3_u07_r3_network.node[23].content_store 	misses[23] 	8779
scalar tree_4_3_u07_r3_network.node[23].content_store 	decision_yes[23] 	688
scalar tree_4_3_u07_r3_network.node[23].content_store 	decision_no[23] 	8091
scalar tree_4_3_u07_r3_network.node[23].content_store 	decision_ratio[23] 	0.078368834719216
scalar tree_4_3_u07_r3_network.node[24].core_layer 	interests[24] 	12386
scalar tree_4_3_u07_r3_network.node[24].core_layer 	data[24] 	8750
scalar tree_4_3_u07_r3_network.node[24].content_store 	p_hit[24] 	0.29355724204747
scalar tree_4_3_u07_r3_network.node[24].content_store 	hits[24] 	3636
scalar tree_4_3_u07_r3_network.node[24].content_store 	misses[24] 	8750
scalar tree_4_3_u07_r3_network.node[24].content_store 	decision_yes[24] 	707
scalar tree_4_3_u07_r3_network.node[24].content_store 	decision_no[24] 	8043
scalar tree_4_3_u07_r3_network.node[24].content_store 	decision_ratio[24] 	0.0808
scalar tree_4_3_u07_r3_network.node[25].core_layer 	interests[25] 	12519
scalar tree_4_3_u07_r3_network.node[25].core_layer 	data[25] 	8902
scalar tree_4_3_u07_r3_network.node[25].content_store 	p_hit[25] 	0.28892084032271
scalar tree_4_3_u07_r3_network.node[25].content_store 	hits[25] 	3617
scalar tree_4_3_u07_r3_network.node[25].content_store 	misses[25] 	8902
scalar tree_4_3_u07_r3_network.node[25].content_store 	decision_yes[25] 	709
scalar tree_4_3_u07_r3_network.node[25].content_store 	decision_no[25] 	8193
scalar tree_4_3_u07_r3_network.node[25].content_store 	decision_ratio[25] 	0.079645023590204
scalar tree_4_3_u07_r3_network.node[26].core_layer 	interests[26] 	12069
scalar tree_4_3_u07_r3_network.node[26].core_layer 	data[26] 	8711
scalar tree_4_3_u07_r3_network.node[26].content_store 	p_hit[26] 	0.27823349076145
scalar tree_4_3_u07_r3_network.node[26].content_store 	hits[26] 	3358
scalar tree_4_3_u07_r3_network.node[26].content_store 	misses[26] 	8711
scalar tree_4_3_u07_r3_network.node[26].content_store 	decision_yes[26] 	358
scalar tree_4_3_u07_r3_network.node[26].content_store 	decision_no[26] 	8353
scalar tree_4_3_u07_r3_network.node[26].content_store 	decision_ratio[26] 	0.041097462977844
scalar tree_4_3_u07_r3_network.node[27].core_layer 	interests[27] 	12656
scalar tree_4_3_u07_r3_network.node[27].core_layer 	data[27] 	8895
scalar tree_4_3_u07_r3_network.node[27].content_store 	p_hit[27] 	0.29717130214918
scalar tree_4_3_u07_r3_network.node[27].content_store 	hits[27] 	3761
scalar tree_4_3_u07_r3_network.node[27].content_store 	misses[27] 	8895
scalar tree_4_3_u07_r3_network.node[27].content_store 	decision_yes[27] 	690
scalar tree_4_3_u07_r3_network.node[27].content_store 	decision_no[27] 	8205
scalar tree_4_3_u07_r3_network.node[27].content_store 	decision_ratio[27] 	0.077571669477234
scalar tree_4_3_u07_r3_network.node[28].core_layer 	interests[28] 	12488
scalar tree_4_3_u07_r3_network.node[28].core_layer 	data[28] 	8804
scalar tree_4_3_u07_r3_network.node[28].content_store 	p_hit[28] 	0.29500320307495
scalar tree_4_3_u07_r3_network.node[28].content_store 	hits[28] 	3684
scalar tree_4_3_u07_r3_network.node[28].content_store 	misses[28] 	8804
scalar tree_4_3_u07_r3_network.node[28].content_store 	decision_yes[28] 	749
scalar tree_4_3_u07_r3_network.node[28].content_store 	decision_no[28] 	8055
scalar tree_4_3_u07_r3_network.node[28].content_store 	decision_ratio[28] 	0.08507496592458
scalar tree_4_3_u07_r3_network.node[29].core_layer 	interests[29] 	12200
scalar tree_4_3_u07_r3_network.node[29].core_layer 	data[29] 	8754
scalar tree_4_3_u07_r3_network.node[29].content_store 	p_hit[29] 	0.28245901639344
scalar tree_4_3_u07_r3_network.node[29].content_store 	hits[29] 	3446
scalar tree_4_3_u07_r3_network.node[29].content_store 	misses[29] 	8754
scalar tree_4_3_u07_r3_network.node[29].content_store 	decision_yes[29] 	421
scalar tree_4_3_u07_r3_network.node[29].content_store 	decision_no[29] 	8333
scalar tree_4_3_u07_r3_network.node[29].content_store 	decision_ratio[29] 	0.048092300662554
scalar tree_4_3_u07_r3_network.node[30].core_layer 	interests[30] 	12208
scalar tree_4_3_u07_r3_network.node[30].core_layer 	data[30] 	8714
scalar tree_4_3_u07_r3_network.node[30].content_store 	p_hit[30] 	0.28620576671035
scalar tree_4_3_u07_r3_network.node[30].content_store 	hits[30] 	3494
scalar tree_4_3_u07_r3_network.node[30].content_store 	misses[30] 	8714
scalar tree_4_3_u07_r3_network.node[30].content_store 	decision_yes[30] 	443
scalar tree_4_3_u07_r3_network.node[30].content_store 	decision_no[30] 	8271
scalar tree_4_3_u07_r3_network.node[30].content_store 	decision_ratio[30] 	0.050837732384668
scalar tree_4_3_u07_r3_network.node[31].core_layer 	interests[31] 	12431
scalar tree_4_3_u07_r3_network.node[31].core_layer 	data[31] 	8905
scalar tree_4_3_u07_r3_network.node[31].content_store 	p_hit[31] 	0.28364572439868
scalar tree_4_3_u07_r3_network.node[31].content_store 	hits[31] 	3526
scalar tree_4_3_u07_r3_network.node[31].content_store 	misses[31] 	8905
scalar tree_4_3_u07_r3_network.node[31].content_store 	decision_yes[31] 	411
scalar tree_4_3_u07_r3_network.node[31].content_store 	decision_no[31] 	8494
scalar tree_4_3_u07_r3_network.node[31].content_store 	decision_ratio[31] 	0.046153846153846
scalar tree_4_3_u07_r3_network.node[32].core_layer 	interests[32] 	12770
scalar tree_4_3_u07_r3_network.node[32].core_layer 	data[32] 	8945
scalar tree_4_3_u07_r3_network.node[32].content_store 	p_hit[32] 	0.29953014878622
scalar tree_4_3_u07_r3_network.node[32].content_store 	hits[32] 	3825
scalar tree_4_3_u07_r3_network.node[32].content_store 	misses[32] 	8945
scalar tree_4_3_u07_r3_network.node[32].content_store 	decision_yes[32] 	750
scalar tree_4_3_u07_r3_network.node[32].content_store 	decision_no[32] 	8195
scalar tree_4_3_u07_r3_network.node[32].content_store 	decision_ratio[32] 	0.083845723868083
scalar tree_4_3_u07_r3_network.node[33].core_layer 	interests[33] 	12448
scalar tree_4_3_u07_r3_network.node[33].core_layer 	data[33] 	8792
scalar tree_4_3_u07_r3_network.node[33].content_store 	p_hit[33] 	0.29362146529563
scalar tree_4_3_u07_r3_network.node[33].content_store 	hits[33] 	3655
scalar tree_4_3_u07_r3_network.node[33].content_store 	misses[33] 	8793
scalar tree_4_3_u07_r3_network.node[33].content_store 	decision_yes[33] 	777
scalar tree_4_3_u07_r3_network.node[33].content_store 	decision_no[33] 	8015
scalar tree_4_3_u07_r3_network.node[33].content_store 	decision_ratio[33] 	0.088375796178344
scalar tree_4_3_u07_r3_network.node[34].core_layer 	interests[34] 	12611
scalar tree_4_3_u07_r3_network.node[34].core_layer 	data[34] 	8900
scalar tree_4_3_u07_r3_network.node[34].content_store 	p_hit[34] 	0.29426690984062
scalar tree_4_3_u07_r3_network.node[34].content_store 	hits[34] 	3711
scalar tree_4_3_u07_r3_network.node[34].content_store 	misses[34] 	8900
scalar tree_4_3_u07_r3_network.node[34].content_store 	decision_yes[34] 	759
scalar tree_4_3_u07_r3_network.node[34].content_store 	decision_no[34] 	8141
scalar tree_4_3_u07_r3_network.node[34].content_store 	decision_ratio[34] 	0.085280898876404
scalar tree_4_3_u07_r3_network.node[35].core_layer 	interests[35] 	12534
scalar tree_4_3_u07_r3_network.node[35].core_layer 	data[35] 	9035
scalar tree_4_3_u07_r3_network.node[35].content_store 	p_hit[35] 	0.2791606829424
scalar tree_4_3_u07_r3_network.node[35].content_store 	hits[35] 	3499
scalar tree_4_3_u07_r3_network.node[35].content_store 	misses[35] 	9035
scalar tree_4_3_u07_r3_network.node[35].content_store 	decision_yes[35] 	434
scalar tree_4_3_u07_r3_network.node[35].content_store 	decision_no[35] 	8601
scalar tree_4_3_u07_r3_network.node[35].content_store 	decision_ratio[35] 	0.04803541781959
scalar tree_4_3_u07_r3_network.node[36].core_layer 	interests[36] 	12360
scalar tree_4_3_u07_r3_network.node[36].core_layer 	data[36] 	8774
scalar tree_4_3_u07_r3_network.node[36].content_store 	p_hit[36] 	0.29012944983819
scalar tree_4_3_u07_r3_network.node[36].content_store 	hits[36] 	3586
scalar tree_4_3_u07_r3_network.node[36].content_store 	misses[36] 	8774
scalar tree_4_3_u07_r3_network.node[36].content_store 	decision_yes[36] 	386
scalar tree_4_3_u07_r3_network.node[36].content_store 	decision_no[36] 	8388
scalar tree_4_3_u07_r3_network.node[36].content_store 	decision_ratio[36] 	0.043993617506269
scalar tree_4_3_u07_r3_network.node[37].core_layer 	interests[37] 	12487
scalar tree_4_3_u07_r3_network.node[37].core_layer 	data[37] 	8775
scalar tree_4_3_u07_r3_network.node[37].content_store 	p_hit[37] 	0.29718907663971
scalar tree_4_3_u07_r3_network.node[37].content_store 	hits[37] 	3711
scalar tree_4_3_u07_r3_network.node[37].content_store 	misses[37] 	8776
scalar tree_4_3_u07_r3_network.node[37].content_store 	decision_yes[37] 	699
scalar tree_4_3_u07_r3_network.node[37].content_store 	decision_no[37] 	8076
scalar tree_4_3_u07_r3_network.node[37].content_store 	decision_ratio[37] 	0.07965811965812
scalar tree_4_3_u07_r3_network.node[38].core_layer 	interests[38] 	12253
scalar tree_4_3_u07_r3_network.node[38].core_layer 	data[38] 	8805
scalar tree_4_3_u07_r3_network.node[38].content_store 	p_hit[38] 	0.28140047335346
scalar tree_4_3_u07_r3_network.node[38].content_store 	hits[38] 	3448
scalar tree_4_3_u07_r3_network.node[38].content_store 	misses[38] 	8805
scalar tree_4_3_u07_r3_network.node[38].content_store 	decision_yes[38] 	398
scalar tree_4_3_u07_r3_network.node[38].content_store 	decision_no[38] 	8407
scalar tree_4_3_u07_r3_network.node[38].content_store 	decision_ratio[38] 	0.045201590005679
scalar tree_4_3_u07_r3_network.node[39].core_layer 	interests[39] 	12088
scalar tree_4_3_u07_r3_network.node[39].core_layer 	data[39] 	8613
scalar tree_4_3_u07_r3_network.node[39].content_store 	p_hit[39] 	0.28747518199868
scalar tree_4_3_u07_r3_network.node[39].content_store 	hits[39] 	3475
scalar tree_4_3_u07_r3_network.node[39].content_store 	misses[39] 	8613
scalar tree_4_3_u07_r3_network.node[39].content_store 	decision_yes[39] 	378
scalar tree_4_3_u07_r3_network.node[39].content_store 	decision_no[39] 	8235
scalar tree_4_3_u07_r3_network.node[39].content_store 	decision_ratio[39] 	0.043887147335423
scalar tree_4_3_u07_r3_network.client[13] 	hdistance[13] 	2.7125374625375
scalar tree_4_3_u07_r3_network.client[13] 	downloads[13] 	12012
scalar tree_4_3_u07_r3_network.client[13] 	avg_time[13] 	0.004182148175
scalar tree_4_3_u07_r3_network.client[14] 	hdistance[14] 	2.6631605101872
scalar tree_4_3_u07_r3_network.client[14] 	downloads[14] 	12074
scalar tree_4_3_u07_r3_network.client[14] 	avg_time[14] 	0.004103525212
scalar tree_4_3_u07_r3_network.client[15] 	hdistance[15] 	2.7246412666997
scalar tree_4_3_u07_r3_network.client[15] 	downloads[15] 	12126
scalar tree_4_3_u07_r3_network.client[15] 	avg_time[15] 	0.004201877205
scalar tree_4_3_u07_r3_network.client[16] 	hdistance[16] 	2.6877914723518
scalar tree_4_3_u07_r3_network.client[16] 	downloads[16] 	12008
scalar tree_4_3_u07_r3_network.client[16] 	avg_time[16] 	0.004153228167
scalar tree_4_3_u07_r3_network.client[17] 	hdistance[17] 	2.7038534532552
scalar tree_4_3_u07_r3_network.client[17] 	downloads[17] 	12119
scalar tree_4_3_u07_r3_network.client[17] 	avg_time[17] 	0.00417987978
scalar tree_4_3_u07_r3_network.client[18] 	hdistance[18] 	2.6628432685867
scalar tree_4_3_u07_r3_network.client[18] 	downloads[18] 	11944
scalar tree_4_3_u07_r3_network.client[18] 	avg_time[18] 	0.004105081088
scalar tree_4_3_u07_r3_network.client[19] 	hdistance[19] 	2.6573785672195
scalar tree_4_3_u07_r3_network.client[19] 	downloads[19] 	11879
scalar tree_4_3_u07_r3_network.client[19] 	avg_time[19] 	0.004094281066
scalar tree_4_3_u07_r3_network.client[20] 	hdistance[20] 	2.675018605805
scalar tree_4_3_u07_r3_network.client[20] 	downloads[20] 	12093
scalar tree_4_3_u07_r3_network.client[20] 	avg_time[20] 	0.004124639677
scalar tree_4_3_u07_r3_network.client[21] 	hdistance[21] 	2.7126736842105
scalar tree_4_3_u07_r3_network.client[21] 	downloads[21] 	11875
scalar tree_4_3_u07_r3_network.client[21] 	avg_time[21] 	0.004179870712
scalar tree_4_3_u07_r3_network.client[22] 	hdistance[22] 	2.7136241158639
scalar tree_4_3_u07_r3_network.client[22] 	downloads[22] 	11876
scalar tree_4_3_u07_r3_network.client[22] 	avg_time[22] 	0.004181326478
scalar tree_4_3_u07_r3_network.client[23] 	hdistance[23] 	2.7049180327869
scalar tree_4_3_u07_r3_network.client[23] 	downloads[23] 	11834
scalar tree_4_3_u07_r3_network.client[23] 	avg_time[23] 	0.004153622165
scalar tree_4_3_u07_r3_network.client[24] 	hdistance[24] 	2.6971753329375
scalar tree_4_3_u07_r3_network.client[24] 	downloads[24] 	11789
scalar tree_4_3_u07_r3_network.client[24] 	avg_time[24] 	0.004147426655
scalar tree_4_3_u07_r3_network.client[25] 	hdistance[25] 	2.6798543287535
scalar tree_4_3_u07_r3_network.client[25] 	downloads[25] 	12082
scalar tree_4_3_u07_r3_network.client[25] 	avg_time[25] 	0.004118354875
scalar tree_4_3_u07_r3_network.client[26] 	hdistance[26] 	2.7163037080636
scalar tree_4_3_u07_r3_network.client[26] 	downloads[26] 	11893
scalar tree_4_3_u07_r3_network.client[26] 	avg_time[26] 	0.004190192941
scalar tree_4_3_u07_r3_network.client[27] 	hdistance[27] 	2.6754923051464
scalar tree_4_3_u07_r3_network.client[27] 	downloads[27] 	12086
scalar tree_4_3_u07_r3_network.client[27] 	avg_time[27] 	0.004112523853
scalar tree_4_3_u07_r3_network.client[28] 	hdistance[28] 	2.6633182655282
scalar tree_4_3_u07_r3_network.client[28] 	downloads[28] 	11946
scalar tree_4_3_u07_r3_network.client[28] 	avg_time[28] 	0.004097435446
scalar tree_4_3_u07_r3_network.client[29] 	hdistance[29] 	2.7021027058725
scalar tree_4_3_u07_r3_network.client[29] 	downloads[29] 	11937
scalar tree_4_3_u07_r3_network.client[29] 	avg_time[29] 	0.00416594846
scalar tree_4_3_u07_r3_network.client[30] 	hdistance[30] 	2.6891925882452
scalar tree_4_3_u07_r3_network.client[30] 	downloads[30] 	11927
scalar tree_4_3_u07_r3_network.client[30] 	avg_time[30] 	0.004143704576
scalar tree_4_3_u07_r3_network.client[31] 	hdistance[31] 	2.6863715063072
scalar tree_4_3_u07_r3_network.client[31] 	downloads[31] 	12129
scalar tree_4_3_u07_r3_network.client[31] 	avg_time[31] 	0.004142135647
scalar tree_4_3_u07_r3_network.client[32] 	hdistance[32] 	2.6517598343685
scalar tree_4_3_u07_r3_network.client[32] 	downloads[32] 	12075
scalar tree_4_3_u07_r3_network.client[32] 	avg_time[32] 	0.004087450373
scalar tree_4_3_u07_r3_network.client[33] 	hdistance[33] 	2.6525971301502
scalar tree_4_3_u07_r3_network.client[33] 	downloads[33] 	11917
scalar tree_4_3_u07_r3_network.client[33] 	avg_time[33] 	0.004080445635
scalar tree_4_3_u07_r3_network.client[34] 	hdistance[34] 	2.6573725194675
scalar tree_4_3_u07_r3_network.client[34] 	downloads[34] 	11943
scalar tree_4_3_u07_r3_network.client[34] 	avg_time[34] 	0.004102651301
scalar tree_4_3_u07_r3_network.client[35] 	hdistance[35] 	2.7032606914632
scalar tree_4_3_u07_r3_network.client[35] 	downloads[35] 	12206
scalar tree_4_3_u07_r3_network.client[35] 	avg_time[35] 	0.004176647488
scalar tree_4_3_u07_r3_network.client[36] 	hdistance[36] 	2.6755252885973
scalar tree_4_3_u07_r3_network.client[36] 	downloads[36] 	12041
scalar tree_4_3_u07_r3_network.client[36] 	avg_time[36] 	0.004132378019
scalar tree_4_3_u07_r3_network.client[37] 	hdistance[37] 	2.6703093476799
scalar tree_4_3_u07_r3_network.client[37] 	downloads[37] 	11896
scalar tree_4_3_u07_r3_network.client[37] 	avg_time[37] 	0.004106923749
scalar tree_4_3_u07_r3_network.client[38] 	hdistance[38] 	2.71404862667
scalar tree_4_3_u07_r3_network.client[38] 	downloads[38] 	12051
scalar tree_4_3_u07_r3_network.client[38] 	avg_time[38] 	0.004179733114
scalar tree_4_3_u07_r3_network.client[39] 	hdistance[39] 	2.7004892037787
scalar tree_4_3_u07_r3_network.client[39] 	downloads[39] 	11856
scalar tree_4_3_u07_r3_network.client[39] 	avg_time[39] 	0.004156879619
