version 2
run General-149-20160819-13:18:39-2054
attr a 0.9
attr cd lcd
attr configname General
attr cr lru
attr datetime 20160819-13:18:39
attr experiment General
attr fsize 1
attr inifile hw5115/scenario_A/NRR-LCD.ini
attr iterationvars "$name=tree_4_3, $un=07, $rep=10, $cd=lcd, $cr=lru, $fsize=1, $a=0.9, $sl=nrr, $ttl=1000, $variance=0.05"
attr iterationvars2 "$name=tree_4_3, $un=07, $rep=10, $cd=lcd, $cr=lru, $fsize=1, $a=0.9, $sl=nrr, $ttl=1000, $variance=0.05, $repetition=0"
attr measurement "$name=tree_4_3, $un=07, $rep=10, $cd=lcd, $cr=lru, $fsize=1, $a=0.9, $sl=nrr, $ttl=1000, $variance=0.05"
attr name tree_4_3
attr network networks.${name}_u${un}_r${rep}_network
attr processid 2054
attr rep 10
attr repetition 0
attr replication #0
attr resultdir results
attr runnumber 149
attr seedset 10
attr sl nrr
attr ttl 1000
attr un 07
attr variance 0.05

scalar . 	a 	0.9
scalar . 	fsize 	1
scalar . 	rep 	10
scalar . 	ttl 	1000
scalar . 	un 	07
scalar . 	variance 	0.05
scalar tree_4_3_u07_r10_network.content_distribution 	repo-0 	0
scalar tree_4_3_u07_r10_network.content_distribution 	client-0 	13
scalar tree_4_3_u07_r10_network.content_distribution 	client-1 	14
scalar tree_4_3_u07_r10_network.content_distribution 	client-2 	15
scalar tree_4_3_u07_r10_network.content_distribution 	client-3 	16
scalar tree_4_3_u07_r10_network.content_distribution 	client-4 	17
scalar tree_4_3_u07_r10_network.content_distribution 	client-5 	18
scalar tree_4_3_u07_r10_network.content_distribution 	client-6 	19
scalar tree_4_3_u07_r10_network.content_distribution 	client-7 	20
scalar tree_4_3_u07_r10_network.content_distribution 	client-8 	21
scalar tree_4_3_u07_r10_network.content_distribution 	client-9 	22
scalar tree_4_3_u07_r10_network.content_distribution 	client-10 	23
scalar tree_4_3_u07_r10_network.content_distribution 	client-11 	24
scalar tree_4_3_u07_r10_network.content_distribution 	client-12 	25
scalar tree_4_3_u07_r10_network.content_distribution 	client-13 	26
scalar tree_4_3_u07_r10_network.content_distribution 	client-14 	27
scalar tree_4_3_u07_r10_network.content_distribution 	client-15 	28
scalar tree_4_3_u07_r10_network.content_distribution 	client-16 	29
scalar tree_4_3_u07_r10_network.content_distribution 	client-17 	30
scalar tree_4_3_u07_r10_network.content_distribution 	client-18 	31
scalar tree_4_3_u07_r10_network.content_distribution 	client-19 	32
scalar tree_4_3_u07_r10_network.content_distribution 	client-20 	33
scalar tree_4_3_u07_r10_network.content_distribution 	client-21 	34
scalar tree_4_3_u07_r10_network.content_distribution 	client-22 	35
scalar tree_4_3_u07_r10_network.content_distribution 	client-23 	36
scalar tree_4_3_u07_r10_network.content_distribution 	client-24 	37
scalar tree_4_3_u07_r10_network.content_distribution 	client-25 	38
scalar tree_4_3_u07_r10_network.content_distribution 	client-26 	39
scalar tree_4_3_u07_r10_network.content_distribution 	repo-0_card 	100000
scalar tree_4_3_u07_r10_network.content_distribution 	repo-0_price 	0
scalar tree_4_3_u07_r10_network.statistics 	stabilization_time 	786.2
scalar tree_4_3_u07_r10_network.statistics 	p_hit 	0.21740733902193
scalar tree_4_3_u07_r10_network.statistics 	interests 	24792
scalar tree_4_3_u07_r10_network.statistics 	data 	16716.25
scalar tree_4_3_u07_r10_network.statistics 	hdistance 	2.6917736369988
scalar tree_4_3_u07_r10_network.statistics 	avg_time 	0.004139829879
scalar tree_4_3_u07_r10_network.statistics 	downloads 	323033
scalar tree_4_3_u07_r10_network.statistics 	total_cost 	0
scalar tree_4_3_u07_r10_network.statistics 	total_replicas 	100000
scalar tree_4_3_u07_r10_network.statistics 	inner_hit 	0.37822142010259
scalar tree_4_3_u07_r10_network.node[0].core_layer 	interests[0] 	202157
scalar tree_4_3_u07_r10_network.node[0].core_layer 	repo_load[0] 	200855
scalar tree_4_3_u07_r10_network.node[0].core_layer 	data[0] 	0
scalar tree_4_3_u07_r10_network.node[0].core_layer 	repo_int[0] 	200855
scalar tree_4_3_u07_r10_network.node[0].content_store 	p_hit[0] 	0.0064405387891589
scalar tree_4_3_u07_r10_network.node[0].content_store 	hits[0] 	1302
scalar tree_4_3_u07_r10_network.node[0].content_store 	misses[0] 	200855
scalar tree_4_3_u07_r10_network.node[0].content_store 	decision_yes[0] 	200855
scalar tree_4_3_u07_r10_network.node[0].content_store 	decision_no[0] 	0
scalar tree_4_3_u07_r10_network.node[0].content_store 	decision_ratio[0] 	1
scalar tree_4_3_u07_r10_network.node[1].core_layer 	interests[1] 	99258
scalar tree_4_3_u07_r10_network.node[1].core_layer 	data[1] 	97606
scalar tree_4_3_u07_r10_network.node[1].content_store 	p_hit[1] 	0.016623345221544
scalar tree_4_3_u07_r10_network.node[1].content_store 	hits[1] 	1650
scalar tree_4_3_u07_r10_network.node[1].content_store 	misses[1] 	97608
scalar tree_4_3_u07_r10_network.node[1].content_store 	decision_yes[1] 	1630
scalar tree_4_3_u07_r10_network.node[1].content_store 	decision_no[1] 	95976
scalar tree_4_3_u07_r10_network.node[1].content_store 	decision_ratio[1] 	0.016699793045509
scalar tree_4_3_u07_r10_network.node[2].core_layer 	interests[2] 	40819
scalar tree_4_3_u07_r10_network.node[2].core_layer 	data[2] 	38972
scalar tree_4_3_u07_r10_network.node[2].content_store 	p_hit[2] 	0.045248536220878
scalar tree_4_3_u07_r10_network.node[2].content_store 	hits[2] 	1847
scalar tree_4_3_u07_r10_network.node[2].content_store 	misses[2] 	38972
scalar tree_4_3_u07_r10_network.node[2].content_store 	decision_yes[2] 	1170
scalar tree_4_3_u07_r10_network.node[2].content_store 	decision_no[2] 	37802
scalar tree_4_3_u07_r10_network.node[2].content_store 	decision_ratio[2] 	0.030021553936159
scalar tree_4_3_u07_r10_network.node[3].core_layer 	interests[3] 	72396
scalar tree_4_3_u07_r10_network.node[3].core_layer 	data[3] 	70244
scalar tree_4_3_u07_r10_network.node[3].content_store 	p_hit[3] 	0.029697773357644
scalar tree_4_3_u07_r10_network.node[3].content_store 	hits[3] 	2150
scalar tree_4_3_u07_r10_network.node[3].content_store 	misses[3] 	70246
scalar tree_4_3_u07_r10_network.node[3].content_store 	decision_yes[3] 	1807
scalar tree_4_3_u07_r10_network.node[3].content_store 	decision_no[3] 	68437
scalar tree_4_3_u07_r10_network.node[3].content_store 	decision_ratio[3] 	0.025724617049143
scalar tree_4_3_u07_r10_network.node[4].core_layer 	interests[4] 	41747
scalar tree_4_3_u07_r10_network.node[4].core_layer 	data[4] 	39785
scalar tree_4_3_u07_r10_network.node[4].content_store 	p_hit[4] 	0.04692552758282
scalar tree_4_3_u07_r10_network.node[4].content_store 	hits[4] 	1959
scalar tree_4_3_u07_r10_network.node[4].content_store 	misses[4] 	39788
scalar tree_4_3_u07_r10_network.node[4].content_store 	decision_yes[4] 	1960
scalar tree_4_3_u07_r10_network.node[4].content_store 	decision_no[4] 	37825
scalar tree_4_3_u07_r10_network.node[4].content_store 	decision_ratio[4] 	0.049264798290813
scalar tree_4_3_u07_r10_network.node[5].core_layer 	interests[5] 	27170
scalar tree_4_3_u07_r10_network.node[5].core_layer 	data[5] 	24726
scalar tree_4_3_u07_r10_network.node[5].content_store 	p_hit[5] 	0.089952153110048
scalar tree_4_3_u07_r10_network.node[5].content_store 	hits[5] 	2444
scalar tree_4_3_u07_r10_network.node[5].content_store 	misses[5] 	24726
scalar tree_4_3_u07_r10_network.node[5].content_store 	decision_yes[5] 	2630
scalar tree_4_3_u07_r10_network.node[5].content_store 	decision_no[5] 	22096
scalar tree_4_3_u07_r10_network.node[5].content_store 	decision_ratio[5] 	0.10636576882634
scalar tree_4_3_u07_r10_network.node[6].core_layer 	interests[6] 	13097
scalar tree_4_3_u07_r10_network.node[6].core_layer 	data[6] 	10284
scalar tree_4_3_u07_r10_network.node[6].content_store 	p_hit[6] 	0.21478201114759
scalar tree_4_3_u07_r10_network.node[6].content_store 	hits[6] 	2813
scalar tree_4_3_u07_r10_network.node[6].content_store 	misses[6] 	10284
scalar tree_4_3_u07_r10_network.node[6].content_store 	decision_yes[6] 	2430
scalar tree_4_3_u07_r10_network.node[6].content_store 	decision_no[6] 	7854
scalar tree_4_3_u07_r10_network.node[6].content_store 	decision_ratio[6] 	0.23628938156359
scalar tree_4_3_u07_r10_network.node[7].core_layer 	interests[7] 	34431
scalar tree_4_3_u07_r10_network.node[7].core_layer 	data[7] 	32529
scalar tree_4_3_u07_r10_network.node[7].content_store 	p_hit[7] 	0.05518282942697
scalar tree_4_3_u07_r10_network.node[7].content_store 	hits[7] 	1900
scalar tree_4_3_u07_r10_network.node[7].content_store 	misses[7] 	32531
scalar tree_4_3_u07_r10_network.node[7].content_store 	decision_yes[7] 	2043
scalar tree_4_3_u07_r10_network.node[7].content_store 	decision_no[7] 	30486
scalar tree_4_3_u07_r10_network.node[7].content_store 	decision_ratio[7] 	0.062805496633773
scalar tree_4_3_u07_r10_network.node[8].core_layer 	interests[8] 	26802
scalar tree_4_3_u07_r10_network.node[8].core_layer 	data[8] 	24758
scalar tree_4_3_u07_r10_network.node[8].content_store 	p_hit[8] 	0.07626296545034
scalar tree_4_3_u07_r10_network.node[8].content_store 	hits[8] 	2044
scalar tree_4_3_u07_r10_network.node[8].content_store 	misses[8] 	24758
scalar tree_4_3_u07_r10_network.node[8].content_store 	decision_yes[8] 	1633
scalar tree_4_3_u07_r10_network.node[8].content_store 	decision_no[8] 	23125
scalar tree_4_3_u07_r10_network.node[8].content_store 	decision_ratio[8] 	0.065958478067695
scalar tree_4_3_u07_r10_network.node[9].core_layer 	interests[9] 	19335
scalar tree_4_3_u07_r10_network.node[9].core_layer 	data[9] 	17210
scalar tree_4_3_u07_r10_network.node[9].content_store 	p_hit[9] 	0.10995603827256
scalar tree_4_3_u07_r10_network.node[9].content_store 	hits[9] 	2126
scalar tree_4_3_u07_r10_network.node[9].content_store 	misses[9] 	17209
scalar tree_4_3_u07_r10_network.node[9].content_store 	decision_yes[9] 	1671
scalar tree_4_3_u07_r10_network.node[9].content_store 	decision_no[9] 	15539
scalar tree_4_3_u07_r10_network.node[9].content_store 	decision_ratio[9] 	0.097094712376525
scalar tree_4_3_u07_r10_network.node[10].core_layer 	interests[10] 	25481
scalar tree_4_3_u07_r10_network.node[10].core_layer 	data[10] 	24265
scalar tree_4_3_u07_r10_network.node[10].content_store 	p_hit[10] 	0.04772183195322
scalar tree_4_3_u07_r10_network.node[10].content_store 	hits[10] 	1216
scalar tree_4_3_u07_r10_network.node[10].content_store 	misses[10] 	24265
scalar tree_4_3_u07_r10_network.node[10].content_store 	decision_yes[10] 	1004
scalar tree_4_3_u07_r10_network.node[10].content_store 	decision_no[10] 	23261
scalar tree_4_3_u07_r10_network.node[10].content_store 	decision_ratio[10] 	0.041376468164022
scalar tree_4_3_u07_r10_network.node[11].core_layer 	interests[11] 	35568
scalar tree_4_3_u07_r10_network.node[11].core_layer 	data[11] 	33274
scalar tree_4_3_u07_r10_network.node[11].content_store 	p_hit[11] 	0.064468061178587
scalar tree_4_3_u07_r10_network.node[11].content_store 	hits[11] 	2293
scalar tree_4_3_u07_r10_network.node[11].content_store 	misses[11] 	33275
scalar tree_4_3_u07_r10_network.node[11].content_store 	decision_yes[11] 	2414
scalar tree_4_3_u07_r10_network.node[11].content_store 	decision_no[11] 	30860
scalar tree_4_3_u07_r10_network.node[11].content_store 	decision_ratio[11] 	0.072549137464687
scalar tree_4_3_u07_r10_network.node[12].core_layer 	interests[12] 	18877
scalar tree_4_3_u07_r10_network.node[12].core_layer 	data[12] 	17152
scalar tree_4_3_u07_r10_network.node[12].content_store 	p_hit[12] 	0.09138104571701
scalar tree_4_3_u07_r10_network.node[12].content_store 	hits[12] 	1725
scalar tree_4_3_u07_r10_network.node[12].content_store 	misses[12] 	17152
scalar tree_4_3_u07_r10_network.node[12].content_store 	decision_yes[12] 	1369
scalar tree_4_3_u07_r10_network.node[12].content_store 	decision_no[12] 	15783
scalar tree_4_3_u07_r10_network.node[12].content_store 	decision_ratio[12] 	0.079815764925373
scalar tree_4_3_u07_r10_network.node[13].core_layer 	interests[13] 	12298
scalar tree_4_3_u07_r10_network.node[13].core_layer 	data[13] 	8892
scalar tree_4_3_u07_r10_network.node[13].content_store 	p_hit[13] 	0.276955602537
scalar tree_4_3_u07_r10_network.node[13].content_store 	hits[13] 	3406
scalar tree_4_3_u07_r10_network.node[13].content_store 	misses[13] 	8892
scalar tree_4_3_u07_r10_network.node[13].content_store 	decision_yes[13] 	362
scalar tree_4_3_u07_r10_network.node[13].content_store 	decision_no[13] 	8530
scalar tree_4_3_u07_r10_network.node[13].content_store 	decision_ratio[13] 	0.040710751237067
scalar tree_4_3_u07_r10_network.node[14].core_layer 	interests[14] 	12456
scalar tree_4_3_u07_r10_network.node[14].core_layer 	data[14] 	8769
scalar tree_4_3_u07_r10_network.node[14].content_store 	p_hit[14] 	0.29600192678227
scalar tree_4_3_u07_r10_network.node[14].content_store 	hits[14] 	3687
scalar tree_4_3_u07_r10_network.node[14].content_store 	misses[14] 	8769
scalar tree_4_3_u07_r10_network.node[14].content_store 	decision_yes[14] 	753
scalar tree_4_3_u07_r10_network.node[14].content_store 	decision_no[14] 	8016
scalar tree_4_3_u07_r10_network.node[14].content_store 	decision_ratio[14] 	0.08587068080739
scalar tree_4_3_u07_r10_network.node[15].core_layer 	interests[15] 	12835
scalar tree_4_3_u07_r10_network.node[15].core_layer 	data[15] 	9058
scalar tree_4_3_u07_r10_network.node[15].content_store 	p_hit[15] 	0.2942734709778
scalar tree_4_3_u07_r10_network.node[15].content_store 	hits[15] 	3777
scalar tree_4_3_u07_r10_network.node[15].content_store 	misses[15] 	9058
scalar tree_4_3_u07_r10_network.node[15].content_store 	decision_yes[15] 	726
scalar tree_4_3_u07_r10_network.node[15].content_store 	decision_no[15] 	8332
scalar tree_4_3_u07_r10_network.node[15].content_store 	decision_ratio[15] 	0.080150143519541
scalar tree_4_3_u07_r10_network.node[16].core_layer 	interests[16] 	12438
scalar tree_4_3_u07_r10_network.node[16].core_layer 	data[16] 	8769
scalar tree_4_3_u07_r10_network.node[16].content_store 	p_hit[16] 	0.29498311625663
scalar tree_4_3_u07_r10_network.node[16].content_store 	hits[16] 	3669
scalar tree_4_3_u07_r10_network.node[16].content_store 	misses[16] 	8769
scalar tree_4_3_u07_r10_network.node[16].content_store 	decision_yes[16] 	664
scalar tree_4_3_u07_r10_network.node[16].content_store 	decision_no[16] 	8105
scalar tree_4_3_u07_r10_network.node[16].content_store 	decision_ratio[16] 	0.075721290911164
scalar tree_4_3_u07_r10_network.node[17].core_layer 	interests[17] 	12174
scalar tree_4_3_u07_r10_network.node[17].core_layer 	data[17] 	8732
scalar tree_4_3_u07_r10_network.node[17].content_store 	p_hit[17] 	0.28273369475932
scalar tree_4_3_u07_r10_network.node[17].content_store 	hits[17] 	3442
scalar tree_4_3_u07_r10_network.node[17].content_store 	misses[17] 	8732
scalar tree_4_3_u07_r10_network.node[17].content_store 	decision_yes[17] 	408
scalar tree_4_3_u07_r10_network.node[17].content_store 	decision_no[17] 	8324
scalar tree_4_3_u07_r10_network.node[17].content_store 	decision_ratio[17] 	0.046724690792487
scalar tree_4_3_u07_r10_network.node[18].core_layer 	interests[18] 	12629
scalar tree_4_3_u07_r10_network.node[18].core_layer 	data[18] 	8831
scalar tree_4_3_u07_r10_network.node[18].content_store 	p_hit[18] 	0.30081558318157
scalar tree_4_3_u07_r10_network.node[18].content_store 	hits[18] 	3799
scalar tree_4_3_u07_r10_network.node[18].content_store 	misses[18] 	8830
scalar tree_4_3_u07_r10_network.node[18].content_store 	decision_yes[18] 	769
scalar tree_4_3_u07_r10_network.node[18].content_store 	decision_no[18] 	8062
scalar tree_4_3_u07_r10_network.node[18].content_store 	decision_ratio[18] 	0.087079605933643
scalar tree_4_3_u07_r10_network.node[19].core_layer 	interests[19] 	12686
scalar tree_4_3_u07_r10_network.node[19].core_layer 	data[19] 	8897
scalar tree_4_3_u07_r10_network.node[19].content_store 	p_hit[19] 	0.29859687844868
scalar tree_4_3_u07_r10_network.node[19].content_store 	hits[19] 	3788
scalar tree_4_3_u07_r10_network.node[19].content_store 	misses[19] 	8898
scalar tree_4_3_u07_r10_network.node[19].content_store 	decision_yes[19] 	722
scalar tree_4_3_u07_r10_network.node[19].content_store 	decision_no[19] 	8175
scalar tree_4_3_u07_r10_network.node[19].content_store 	decision_ratio[19] 	0.081150949758346
scalar tree_4_3_u07_r10_network.node[20].core_layer 	interests[20] 	12494
scalar tree_4_3_u07_r10_network.node[20].core_layer 	data[20] 	8724
scalar tree_4_3_u07_r10_network.node[20].content_store 	p_hit[20] 	0.30174483752201
scalar tree_4_3_u07_r10_network.node[20].content_store 	hits[20] 	3770
scalar tree_4_3_u07_r10_network.node[20].content_store 	misses[20] 	8724
scalar tree_4_3_u07_r10_network.node[20].content_store 	decision_yes[20] 	759
scalar tree_4_3_u07_r10_network.node[20].content_store 	decision_no[20] 	7965
scalar tree_4_3_u07_r10_network.node[20].content_store 	decision_ratio[20] 	0.087001375515818
scalar tree_4_3_u07_r10_network.node[21].core_layer 	interests[21] 	12282
scalar tree_4_3_u07_r10_network.node[21].core_layer 	data[21] 	8836
scalar tree_4_3_u07_r10_network.node[21].content_store 	p_hit[21] 	0.28057319654779
scalar tree_4_3_u07_r10_network.node[21].content_store 	hits[21] 	3446
scalar tree_4_3_u07_r10_network.node[21].content_store 	misses[21] 	8836
scalar tree_4_3_u07_r10_network.node[21].content_store 	decision_yes[21] 	431
scalar tree_4_3_u07_r10_network.node[21].content_store 	decision_no[21] 	8405
scalar tree_4_3_u07_r10_network.node[21].content_store 	decision_ratio[21] 	0.048777727478497
scalar tree_4_3_u07_r10_network.node[22].core_layer 	interests[22] 	12278
scalar tree_4_3_u07_r10_network.node[22].core_layer 	data[22] 	8748
scalar tree_4_3_u07_r10_network.node[22].content_store 	p_hit[22] 	0.28750610848672
scalar tree_4_3_u07_r10_network.node[22].content_store 	hits[22] 	3530
scalar tree_4_3_u07_r10_network.node[22].content_store 	misses[22] 	8748
scalar tree_4_3_u07_r10_network.node[22].content_store 	decision_yes[22] 	377
scalar tree_4_3_u07_r10_network.node[22].content_store 	decision_no[22] 	8371
scalar tree_4_3_u07_r10_network.node[22].content_store 	decision_ratio[22] 	0.043095564700503
scalar tree_4_3_u07_r10_network.node[23].core_layer 	interests[23] 	12306
scalar tree_4_3_u07_r10_network.node[23].core_layer 	data[23] 	8821
scalar tree_4_3_u07_r10_network.node[23].content_store 	p_hit[23] 	0.28319518933853
scalar tree_4_3_u07_r10_network.node[23].content_store 	hits[23] 	3485
scalar tree_4_3_u07_r10_network.node[23].content_store 	misses[23] 	8821
scalar tree_4_3_u07_r10_network.node[23].content_store 	decision_yes[23] 	750
scalar tree_4_3_u07_r10_network.node[23].content_store 	decision_no[23] 	8071
scalar tree_4_3_u07_r10_network.node[23].content_store 	decision_ratio[23] 	0.085024373653781
scalar tree_4_3_u07_r10_network.node[24].core_layer 	interests[24] 	12647
scalar tree_4_3_u07_r10_network.node[24].core_layer 	data[24] 	9012
scalar tree_4_3_u07_r10_network.node[24].content_store 	p_hit[24] 	0.28734087135289
scalar tree_4_3_u07_r10_network.node[24].content_store 	hits[24] 	3634
scalar tree_4_3_u07_r10_network.node[24].content_store 	misses[24] 	9013
scalar tree_4_3_u07_r10_network.node[24].content_store 	decision_yes[24] 	722
scalar tree_4_3_u07_r10_network.node[24].content_store 	decision_no[24] 	8290
scalar tree_4_3_u07_r10_network.node[24].content_store 	decision_ratio[24] 	0.08011540168664
scalar tree_4_3_u07_r10_network.node[25].core_layer 	interests[25] 	12470
scalar tree_4_3_u07_r10_network.node[25].core_layer 	data[25] 	8937
scalar tree_4_3_u07_r10_network.node[25].content_store 	p_hit[25] 	0.28331996792302
scalar tree_4_3_u07_r10_network.node[25].content_store 	hits[25] 	3533
scalar tree_4_3_u07_r10_network.node[25].content_store 	misses[25] 	8937
scalar tree_4_3_u07_r10_network.node[25].content_store 	decision_yes[25] 	722
scalar tree_4_3_u07_r10_network.node[25].content_store 	decision_no[25] 	8215
scalar tree_4_3_u07_r10_network.node[25].content_store 	decision_ratio[25] 	0.08078773637686
scalar tree_4_3_u07_r10_network.node[26].core_layer 	interests[26] 	12179
scalar tree_4_3_u07_r10_network.node[26].core_layer 	data[26] 	8745
scalar tree_4_3_u07_r10_network.node[26].content_store 	p_hit[26] 	0.2818786435668
scalar tree_4_3_u07_r10_network.node[26].content_store 	hits[26] 	3433
scalar tree_4_3_u07_r10_network.node[26].content_store 	misses[26] 	8746
scalar tree_4_3_u07_r10_network.node[26].content_store 	decision_yes[26] 	392
scalar tree_4_3_u07_r10_network.node[26].content_store 	decision_no[26] 	8353
scalar tree_4_3_u07_r10_network.node[26].content_store 	decision_ratio[26] 	0.044825614636935
scalar tree_4_3_u07_r10_network.node[27].core_layer 	interests[27] 	12587
scalar tree_4_3_u07_r10_network.node[27].core_layer 	data[27] 	8896
scalar tree_4_3_u07_r10_network.node[27].content_store 	p_hit[27] 	0.29323905616906
scalar tree_4_3_u07_r10_network.node[27].content_store 	hits[27] 	3691
scalar tree_4_3_u07_r10_network.node[27].content_store 	misses[27] 	8896
scalar tree_4_3_u07_r10_network.node[27].content_store 	decision_yes[27] 	693
scalar tree_4_3_u07_r10_network.node[27].content_store 	decision_no[27] 	8203
scalar tree_4_3_u07_r10_network.node[27].content_store 	decision_ratio[27] 	0.077900179856115
scalar tree_4_3_u07_r10_network.node[28].core_layer 	interests[28] 	12307
scalar tree_4_3_u07_r10_network.node[28].core_layer 	data[28] 	8853
scalar tree_4_3_u07_r10_network.node[28].content_store 	p_hit[28] 	0.28057203217681
scalar tree_4_3_u07_r10_network.node[28].content_store 	hits[28] 	3453
scalar tree_4_3_u07_r10_network.node[28].content_store 	misses[28] 	8854
scalar tree_4_3_u07_r10_network.node[28].content_store 	decision_yes[28] 	421
scalar tree_4_3_u07_r10_network.node[28].content_store 	decision_no[28] 	8432
scalar tree_4_3_u07_r10_network.node[28].content_store 	decision_ratio[28] 	0.047554501298995
scalar tree_4_3_u07_r10_network.node[29].core_layer 	interests[29] 	12383
scalar tree_4_3_u07_r10_network.node[29].core_layer 	data[29] 	8760
scalar tree_4_3_u07_r10_network.node[29].content_store 	p_hit[29] 	0.29257853508843
scalar tree_4_3_u07_r10_network.node[29].content_store 	hits[29] 	3623
scalar tree_4_3_u07_r10_network.node[29].content_store 	misses[29] 	8760
scalar tree_4_3_u07_r10_network.node[29].content_store 	decision_yes[29] 	696
scalar tree_4_3_u07_r10_network.node[29].content_store 	decision_no[29] 	8064
scalar tree_4_3_u07_r10_network.node[29].content_store 	decision_ratio[29] 	0.079452054794521
scalar tree_4_3_u07_r10_network.node[30].core_layer 	interests[30] 	12145
scalar tree_4_3_u07_r10_network.node[30].core_layer 	data[30] 	8674
scalar tree_4_3_u07_r10_network.node[30].content_store 	p_hit[30] 	0.28587896253602
scalar tree_4_3_u07_r10_network.node[30].content_store 	hits[30] 	3472
scalar tree_4_3_u07_r10_network.node[30].content_store 	misses[30] 	8673
scalar tree_4_3_u07_r10_network.node[30].content_store 	decision_yes[30] 	425
scalar tree_4_3_u07_r10_network.node[30].content_store 	decision_no[30] 	8249
scalar tree_4_3_u07_r10_network.node[30].content_store 	decision_ratio[30] 	0.048997002536315
scalar tree_4_3_u07_r10_network.node[31].core_layer 	interests[31] 	12120
scalar tree_4_3_u07_r10_network.node[31].core_layer 	data[31] 	8665
scalar tree_4_3_u07_r10_network.node[31].content_store 	p_hit[31] 	0.28506600660066
scalar tree_4_3_u07_r10_network.node[31].content_store 	hits[31] 	3455
scalar tree_4_3_u07_r10_network.node[31].content_store 	misses[31] 	8665
scalar tree_4_3_u07_r10_network.node[31].content_store 	decision_yes[31] 	360
scalar tree_4_3_u07_r10_network.node[31].content_store 	decision_no[31] 	8305
scalar tree_4_3_u07_r10_network.node[31].content_store 	decision_ratio[31] 	0.041546451240623
scalar tree_4_3_u07_r10_network.node[32].core_layer 	interests[32] 	12629
scalar tree_4_3_u07_r10_network.node[32].core_layer 	data[32] 	8910
scalar tree_4_3_u07_r10_network.node[32].content_store 	p_hit[32] 	0.29456013936179
scalar tree_4_3_u07_r10_network.node[32].content_store 	hits[32] 	3720
scalar tree_4_3_u07_r10_network.node[32].content_store 	misses[32] 	8909
scalar tree_4_3_u07_r10_network.node[32].content_store 	decision_yes[32] 	673
scalar tree_4_3_u07_r10_network.node[32].content_store 	decision_no[32] 	8237
scalar tree_4_3_u07_r10_network.node[32].content_store 	decision_ratio[32] 	0.075533108866442
scalar tree_4_3_u07_r10_network.node[33].core_layer 	interests[33] 	12495
scalar tree_4_3_u07_r10_network.node[33].core_layer 	data[33] 	8790
scalar tree_4_3_u07_r10_network.node[33].content_store 	p_hit[33] 	0.29651860744298
scalar tree_4_3_u07_r10_network.node[33].content_store 	hits[33] 	3705
scalar tree_4_3_u07_r10_network.node[33].content_store 	misses[33] 	8790
scalar tree_4_3_u07_r10_network.node[33].content_store 	decision_yes[33] 	660
scalar tree_4_3_u07_r10_network.node[33].content_store 	decision_no[33] 	8130
scalar tree_4_3_u07_r10_network.node[33].content_store 	decision_ratio[33] 	0.075085324232082
scalar tree_4_3_u07_r10_network.node[34].core_layer 	interests[34] 	12212
scalar tree_4_3_u07_r10_network.node[34].core_layer 	data[34] 	8676
scalar tree_4_3_u07_r10_network.node[34].content_store 	p_hit[34] 	0.2895512610547
scalar tree_4_3_u07_r10_network.node[34].content_store 	hits[34] 	3536
scalar tree_4_3_u07_r10_network.node[34].content_store 	misses[34] 	8676
scalar tree_4_3_u07_r10_network.node[34].content_store 	decision_yes[34] 	416
scalar tree_4_3_u07_r10_network.node[34].content_store 	decision_no[34] 	8260
scalar tree_4_3_u07_r10_network.node[34].content_store 	decision_ratio[34] 	0.04794836330106
scalar tree_4_3_u07_r10_network.node[35].core_layer 	interests[35] 	12173
scalar tree_4_3_u07_r10_network.node[35].core_layer 	data[35] 	8698
scalar tree_4_3_u07_r10_network.node[35].content_store 	p_hit[35] 	0.28546783865933
scalar tree_4_3_u07_r10_network.node[35].content_store 	hits[35] 	3475
scalar tree_4_3_u07_r10_network.node[35].content_store 	misses[35] 	8698
scalar tree_4_3_u07_r10_network.node[35].content_store 	decision_yes[35] 	419
scalar tree_4_3_u07_r10_network.node[35].content_store 	decision_no[35] 	8279
scalar tree_4_3_u07_r10_network.node[35].content_store 	decision_ratio[35] 	0.048171993561738
scalar tree_4_3_u07_r10_network.node[36].core_layer 	interests[36] 	12306
scalar tree_4_3_u07_r10_network.node[36].core_layer 	data[36] 	8798
scalar tree_4_3_u07_r10_network.node[36].content_store 	p_hit[36] 	0.28506419632699
scalar tree_4_3_u07_r10_network.node[36].content_store 	hits[36] 	3508
scalar tree_4_3_u07_r10_network.node[36].content_store 	misses[36] 	8798
scalar tree_4_3_u07_r10_network.node[36].content_store 	decision_yes[36] 	417
scalar tree_4_3_u07_r10_network.node[36].content_store 	decision_no[36] 	8381
scalar tree_4_3_u07_r10_network.node[36].content_store 	decision_ratio[36] 	0.047397135712662
scalar tree_4_3_u07_r10_network.node[37].core_layer 	interests[37] 	12100
scalar tree_4_3_u07_r10_network.node[37].core_layer 	data[37] 	8684
scalar tree_4_3_u07_r10_network.node[37].content_store 	p_hit[37] 	0.28231404958678
scalar tree_4_3_u07_r10_network.node[37].content_store 	hits[37] 	3416
scalar tree_4_3_u07_r10_network.node[37].content_store 	misses[37] 	8684
scalar tree_4_3_u07_r10_network.node[37].content_store 	decision_yes[37] 	339
scalar tree_4_3_u07_r10_network.node[37].content_store 	decision_no[37] 	8345
scalar tree_4_3_u07_r10_network.node[37].content_store 	decision_ratio[37] 	0.039037309995394
scalar tree_4_3_u07_r10_network.node[38].core_layer 	interests[38] 	12674
scalar tree_4_3_u07_r10_network.node[38].core_layer 	data[38] 	8824
scalar tree_4_3_u07_r10_network.node[38].content_store 	p_hit[38] 	0.30369259902162
scalar tree_4_3_u07_r10_network.node[38].content_store 	hits[38] 	3849
scalar tree_4_3_u07_r10_network.node[38].content_store 	misses[38] 	8825
scalar tree_4_3_u07_r10_network.node[38].content_store 	decision_yes[38] 	722
scalar tree_4_3_u07_r10_network.node[38].content_store 	decision_no[38] 	8102
scalar tree_4_3_u07_r10_network.node[38].content_store 	decision_ratio[38] 	0.081822302810517
scalar tree_4_3_u07_r10_network.node[39].core_layer 	interests[39] 	12239
scalar tree_4_3_u07_r10_network.node[39].core_layer 	data[39] 	8846
scalar tree_4_3_u07_r10_network.node[39].content_store 	p_hit[39] 	0.27722853174279
scalar tree_4_3_u07_r10_network.node[39].content_store 	hits[39] 	3393
scalar tree_4_3_u07_r10_network.node[39].content_store 	misses[39] 	8846
scalar tree_4_3_u07_r10_network.node[39].content_store 	decision_yes[39] 	417
scalar tree_4_3_u07_r10_network.node[39].content_store 	decision_no[39] 	8429
scalar tree_4_3_u07_r10_network.node[39].content_store 	decision_ratio[39] 	0.047139950260005
scalar tree_4_3_u07_r10_network.client[13] 	hdistance[13] 	2.7386288180611
scalar tree_4_3_u07_r10_network.client[13] 	downloads[13] 	12048
scalar tree_4_3_u07_r10_network.client[13] 	avg_time[13] 	0.004218124461
scalar tree_4_3_u07_r10_network.client[14] 	hdistance[14] 	2.6492763379333
scalar tree_4_3_u07_r10_network.client[14] 	downloads[14] 	11884
scalar tree_4_3_u07_r10_network.client[14] 	avg_time[14] 	0.004073670123
scalar tree_4_3_u07_r10_network.client[15] 	hdistance[15] 	2.6698592010478
scalar tree_4_3_u07_r10_network.client[15] 	downloads[15] 	12216
scalar tree_4_3_u07_r10_network.client[15] 	avg_time[15] 	0.00411148949
scalar tree_4_3_u07_r10_network.client[16] 	hdistance[16] 	2.6765400843882
scalar tree_4_3_u07_r10_network.client[16] 	downloads[16] 	11850
scalar tree_4_3_u07_r10_network.client[16] 	avg_time[16] 	0.004112448822
scalar tree_4_3_u07_r10_network.client[17] 	hdistance[17] 	2.6984529546031
scalar tree_4_3_u07_r10_network.client[17] 	downloads[17] 	11829
scalar tree_4_3_u07_r10_network.client[17] 	avg_time[17] 	0.004163384116
scalar tree_4_3_u07_r10_network.client[18] 	hdistance[18] 	2.6299706990373
scalar tree_4_3_u07_r10_network.client[18] 	downloads[18] 	11945
scalar tree_4_3_u07_r10_network.client[18] 	avg_time[18] 	0.004060608127
scalar tree_4_3_u07_r10_network.client[19] 	hdistance[19] 	2.6629568106312
scalar tree_4_3_u07_r10_network.client[19] 	downloads[19] 	12040
scalar tree_4_3_u07_r10_network.client[19] 	avg_time[19] 	0.004099036651
scalar tree_4_3_u07_r10_network.client[20] 	hdistance[20] 	2.639381845971
scalar tree_4_3_u07_r10_network.client[20] 	downloads[20] 	11777
scalar tree_4_3_u07_r10_network.client[20] 	avg_time[20] 	0.004069454417
scalar tree_4_3_u07_r10_network.client[21] 	hdistance[21] 	2.6948670790838
scalar tree_4_3_u07_r10_network.client[21] 	downloads[21] 	11962
scalar tree_4_3_u07_r10_network.client[21] 	avg_time[21] 	0.004163347645
scalar tree_4_3_u07_r10_network.client[22] 	hdistance[22] 	2.6767760697964
scalar tree_4_3_u07_r10_network.client[22] 	downloads[22] 	12035
scalar tree_4_3_u07_r10_network.client[22] 	avg_time[22] 	0.004129012584
scalar tree_4_3_u07_r10_network.client[23] 	hdistance[23] 	2.6728238866397
scalar tree_4_3_u07_r10_network.client[23] 	downloads[23] 	11856
scalar tree_4_3_u07_r10_network.client[23] 	avg_time[23] 	0.004117405933
scalar tree_4_3_u07_r10_network.client[24] 	hdistance[24] 	2.6889164598842
scalar tree_4_3_u07_r10_network.client[24] 	downloads[24] 	12090
scalar tree_4_3_u07_r10_network.client[24] 	avg_time[24] 	0.004137519803
scalar tree_4_3_u07_r10_network.client[25] 	hdistance[25] 	2.6948149383128
scalar tree_4_3_u07_r10_network.client[25] 	downloads[25] 	11996
scalar tree_4_3_u07_r10_network.client[25] 	avg_time[25] 	0.004141589091
scalar tree_4_3_u07_r10_network.client[26] 	hdistance[26] 	2.7121212121212
scalar tree_4_3_u07_r10_network.client[26] 	downloads[26] 	11946
scalar tree_4_3_u07_r10_network.client[26] 	avg_time[26] 	0.004172390822
scalar tree_4_3_u07_r10_network.client[27] 	hdistance[27] 	2.6953274130633
scalar tree_4_3_u07_r10_network.client[27] 	downloads[27] 	12049
scalar tree_4_3_u07_r10_network.client[27] 	avg_time[27] 	0.004135443915
scalar tree_4_3_u07_r10_network.client[28] 	hdistance[28] 	2.7175553528485
scalar tree_4_3_u07_r10_network.client[28] 	downloads[28] 	12059
scalar tree_4_3_u07_r10_network.client[28] 	avg_time[28] 	0.004181705066
scalar tree_4_3_u07_r10_network.client[29] 	hdistance[29] 	2.6974051221368
scalar tree_4_3_u07_r10_network.client[29] 	downloads[29] 	11831
scalar tree_4_3_u07_r10_network.client[29] 	avg_time[29] 	0.004142165948
scalar tree_4_3_u07_r10_network.client[30] 	hdistance[30] 	2.694523769528
scalar tree_4_3_u07_r10_network.client[30] 	downloads[30] 	11906
scalar tree_4_3_u07_r10_network.client[30] 	avg_time[30] 	0.004144126013
scalar tree_4_3_u07_r10_network.client[31] 	hdistance[31] 	2.6961233847437
scalar tree_4_3_u07_r10_network.client[31] 	downloads[31] 	11995
scalar tree_4_3_u07_r10_network.client[31] 	avg_time[31] 	0.004145433763
scalar tree_4_3_u07_r10_network.client[32] 	hdistance[32] 	2.7046360917248
scalar tree_4_3_u07_r10_network.client[32] 	downloads[32] 	12036
scalar tree_4_3_u07_r10_network.client[32] 	avg_time[32] 	0.004146889661
scalar tree_4_3_u07_r10_network.client[33] 	hdistance[33] 	2.6728405315615
scalar tree_4_3_u07_r10_network.client[33] 	downloads[33] 	12040
scalar tree_4_3_u07_r10_network.client[33] 	avg_time[33] 	0.004098335843
scalar tree_4_3_u07_r10_network.client[34] 	hdistance[34] 	2.7012220817531
scalar tree_4_3_u07_r10_network.client[34] 	downloads[34] 	11865
scalar tree_4_3_u07_r10_network.client[34] 	avg_time[34] 	0.004154575167
scalar tree_4_3_u07_r10_network.client[35] 	hdistance[35] 	2.7194474858924
scalar tree_4_3_u07_r10_network.client[35] 	downloads[35] 	11873
scalar tree_4_3_u07_r10_network.client[35] 	avg_time[35] 	0.004174342168
scalar tree_4_3_u07_r10_network.client[36] 	hdistance[36] 	2.7239017872056
scalar tree_4_3_u07_r10_network.client[36] 	downloads[36] 	11974
scalar tree_4_3_u07_r10_network.client[36] 	avg_time[36] 	0.004183060334
scalar tree_4_3_u07_r10_network.client[37] 	hdistance[37] 	2.7402980048826
scalar tree_4_3_u07_r10_network.client[37] 	downloads[37] 	11879
scalar tree_4_3_u07_r10_network.client[37] 	avg_time[37] 	0.004203846832
scalar tree_4_3_u07_r10_network.client[38] 	hdistance[38] 	2.6772662948472
scalar tree_4_3_u07_r10_network.client[38] 	downloads[38] 	12013
scalar tree_4_3_u07_r10_network.client[38] 	avg_time[38] 	0.00410155364
scalar tree_4_3_u07_r10_network.client[39] 	hdistance[39] 	2.7319544812692
scalar tree_4_3_u07_r10_network.client[39] 	downloads[39] 	12039
scalar tree_4_3_u07_r10_network.client[39] 	avg_time[39] 	0.004194446305
