version 2
run General-12-20160825-17:10:24-3010
attr D lcd
attr F nrr
attr R lru
attr a 0.9
attr configname General
attr datetime 20160825-17:10:24
attr experiment General
attr inifile hw5115/scenario_C/omnetp.ini
attr iterationvars "$net=level3, $rep=2, $a=0.9, $F=nrr, $D=lcd, $R=lru, $window=60, $variance=0.05, $mytime=600"
attr iterationvars2 "$net=level3, $rep=2, $a=0.9, $F=nrr, $D=lcd, $R=lru, $window=60, $variance=0.05, $mytime=600, $repetition=0"
attr measurement "$net=level3, $rep=2, $a=0.9, $F=nrr, $D=lcd, $R=lru, $window=60, $variance=0.05, $mytime=600"
attr mytime 600
attr net level3
attr network networks.${net=level3}_network
attr processid 3010
attr rep 2
attr repetition 0
attr replication #0
attr resultdir results
attr runnumber 12
attr seedset 2
attr variance 0.05
attr window 60

scalar . 	a 	0.9
scalar . 	mytime 	600
scalar . 	rep 	2
scalar . 	variance 	0.05
scalar . 	window 	60
scalar level3_network.content_distribution 	repo-0 	4
scalar level3_network.content_distribution 	repo-1 	25
scalar level3_network.content_distribution 	repo-2 	3
scalar level3_network.content_distribution 	repo-3 	19
scalar level3_network.content_distribution 	repo-4 	23
scalar level3_network.content_distribution 	repo-5 	39
scalar level3_network.content_distribution 	repo-6 	28
scalar level3_network.content_distribution 	repo-7 	14
scalar level3_network.content_distribution 	repo-8 	8
scalar level3_network.content_distribution 	repo-9 	42
scalar level3_network.content_distribution 	repo-10 	26
scalar level3_network.content_distribution 	repo-11 	38
scalar level3_network.content_distribution 	repo-12 	7
scalar level3_network.content_distribution 	repo-13 	44
scalar level3_network.content_distribution 	repo-14 	0
scalar level3_network.content_distribution 	repo-15 	11
scalar level3_network.content_distribution 	client-0 	21
scalar level3_network.content_distribution 	client-1 	9
scalar level3_network.content_distribution 	client-2 	38
scalar level3_network.content_distribution 	client-3 	2
scalar level3_network.content_distribution 	client-4 	30
scalar level3_network.content_distribution 	client-5 	8
scalar level3_network.content_distribution 	client-6 	23
scalar level3_network.content_distribution 	client-7 	32
scalar level3_network.content_distribution 	client-8 	40
scalar level3_network.content_distribution 	client-9 	42
scalar level3_network.content_distribution 	client-10 	45
scalar level3_network.content_distribution 	client-11 	33
scalar level3_network.content_distribution 	client-12 	28
scalar level3_network.content_distribution 	client-13 	3
scalar level3_network.content_distribution 	client-14 	15
scalar level3_network.content_distribution 	client-15 	34
scalar level3_network.content_distribution 	client-16 	31
scalar level3_network.content_distribution 	client-17 	17
scalar level3_network.content_distribution 	client-18 	25
scalar level3_network.content_distribution 	client-19 	12
scalar level3_network.content_distribution 	client-20 	22
scalar level3_network.content_distribution 	client-21 	11
scalar level3_network.content_distribution 	client-22 	6
scalar level3_network.content_distribution 	client-23 	39
scalar level3_network.content_distribution 	client-24 	7
scalar level3_network.content_distribution 	client-25 	18
scalar level3_network.content_distribution 	client-26 	36
scalar level3_network.content_distribution 	client-27 	27
scalar level3_network.content_distribution 	client-28 	43
scalar level3_network.content_distribution 	client-29 	37
scalar level3_network.content_distribution 	client-30 	4
scalar level3_network.content_distribution 	client-31 	14
scalar level3_network.content_distribution 	repo-0_card 	6237
scalar level3_network.content_distribution 	repo-0_price 	0
scalar level3_network.content_distribution 	repo-1_card 	6124
scalar level3_network.content_distribution 	repo-1_price 	0
scalar level3_network.content_distribution 	repo-2_card 	6218
scalar level3_network.content_distribution 	repo-2_price 	0
scalar level3_network.content_distribution 	repo-3_card 	6259
scalar level3_network.content_distribution 	repo-3_price 	0
scalar level3_network.content_distribution 	repo-4_card 	6179
scalar level3_network.content_distribution 	repo-4_price 	0
scalar level3_network.content_distribution 	repo-5_card 	6255
scalar level3_network.content_distribution 	repo-5_price 	0
scalar level3_network.content_distribution 	repo-6_card 	6347
scalar level3_network.content_distribution 	repo-6_price 	0
scalar level3_network.content_distribution 	repo-7_card 	6287
scalar level3_network.content_distribution 	repo-7_price 	0
scalar level3_network.content_distribution 	repo-8_card 	6392
scalar level3_network.content_distribution 	repo-8_price 	0
scalar level3_network.content_distribution 	repo-9_card 	6213
scalar level3_network.content_distribution 	repo-9_price 	0
scalar level3_network.content_distribution 	repo-10_card 	6264
scalar level3_network.content_distribution 	repo-10_price 	0
scalar level3_network.content_distribution 	repo-11_card 	6216
scalar level3_network.content_distribution 	repo-11_price 	0
scalar level3_network.content_distribution 	repo-12_card 	6289
scalar level3_network.content_distribution 	repo-12_price 	0
scalar level3_network.content_distribution 	repo-13_card 	6209
scalar level3_network.content_distribution 	repo-13_price 	0
scalar level3_network.content_distribution 	repo-14_card 	6400
scalar level3_network.content_distribution 	repo-14_price 	0
scalar level3_network.content_distribution 	repo-15_card 	6111
scalar level3_network.content_distribution 	repo-15_price 	0
scalar level3_network.statistics 	stabilization_time 	694.4
scalar level3_network.statistics 	p_hit 	0.25141220639716
scalar level3_network.statistics 	interests 	19273.913043478
scalar level3_network.statistics 	data 	10903.565217391
scalar level3_network.statistics 	hdistance 	1.8700922356169
scalar level3_network.statistics 	avg_time 	0.03248158882
scalar level3_network.statistics 	downloads 	384943
scalar level3_network.statistics 	total_cost 	0
scalar level3_network.statistics 	total_replicas 	100000
scalar level3_network.statistics 	inner_hit 	0.43326154781357
scalar level3_network.node[0].core_layer 	interests[0] 	14071
scalar level3_network.node[0].core_layer 	repo_load[0] 	13066
scalar level3_network.node[0].core_layer 	data[0] 	0
scalar level3_network.node[0].core_layer 	repo_int[0] 	218162
scalar level3_network.node[0].content_store 	p_hit[0] 	0.071423495131831
scalar level3_network.node[0].content_store 	hits[0] 	1005
scalar level3_network.node[0].content_store 	misses[0] 	13066
scalar level3_network.node[0].content_store 	decision_yes[0] 	13066
scalar level3_network.node[0].content_store 	decision_no[0] 	0
scalar level3_network.node[0].content_store 	decision_ratio[0] 	1
scalar level3_network.node[1].core_layer 	interests[1] 	0
scalar level3_network.node[1].core_layer 	data[1] 	0
scalar level3_network.node[1].content_store 	p_hit[1] 	-nan
scalar level3_network.node[1].content_store 	hits[1] 	0
scalar level3_network.node[1].content_store 	misses[1] 	0
scalar level3_network.node[1].content_store 	decision_yes[1] 	0
scalar level3_network.node[1].content_store 	decision_no[1] 	0
scalar level3_network.node[1].content_store 	decision_ratio[1] 	0
scalar level3_network.node[2].core_layer 	interests[2] 	34255
scalar level3_network.node[2].core_layer 	data[2] 	28090
scalar level3_network.node[2].content_store 	p_hit[2] 	0.17974018391476
scalar level3_network.node[2].content_store 	hits[2] 	6157
scalar level3_network.node[2].content_store 	misses[2] 	28098
scalar level3_network.node[2].content_store 	decision_yes[2] 	4004
scalar level3_network.node[2].content_store 	decision_no[2] 	24086
scalar level3_network.node[2].content_store 	decision_ratio[2] 	0.14254182983268
scalar level3_network.node[3].core_layer 	interests[3] 	46234
scalar level3_network.node[3].core_layer 	repo_load[3] 	13553
scalar level3_network.node[3].core_layer 	data[3] 	29304
scalar level3_network.node[3].content_store 	p_hit[3] 	0.072803564476359
scalar level3_network.node[3].content_store 	hits[3] 	3366
scalar level3_network.node[3].content_store 	misses[3] 	42868
scalar level3_network.node[3].content_store 	decision_yes[3] 	18535
scalar level3_network.node[3].content_store 	decision_no[3] 	24321
scalar level3_network.node[3].content_store 	decision_ratio[3] 	0.43249486652977
scalar level3_network.node[4].core_layer 	interests[4] 	26898
scalar level3_network.node[4].core_layer 	repo_load[4] 	14522
scalar level3_network.node[4].core_layer 	data[4] 	9685
scalar level3_network.node[4].content_store 	p_hit[4] 	0.099895903041118
scalar level3_network.node[4].content_store 	hits[4] 	2687
scalar level3_network.node[4].content_store 	misses[4] 	24211
scalar level3_network.node[4].content_store 	decision_yes[4] 	16535
scalar level3_network.node[4].content_store 	decision_no[4] 	7672
scalar level3_network.node[4].content_store 	decision_ratio[4] 	0.68306688148056
scalar level3_network.node[5].core_layer 	interests[5] 	5733
scalar level3_network.node[5].core_layer 	data[5] 	2027
scalar level3_network.node[5].content_store 	p_hit[5] 	0.64643293214722
scalar level3_network.node[5].content_store 	hits[5] 	3706
scalar level3_network.node[5].content_store 	misses[5] 	2027
scalar level3_network.node[5].content_store 	decision_yes[5] 	401
scalar level3_network.node[5].content_store 	decision_no[5] 	1626
scalar level3_network.node[5].content_store 	decision_ratio[5] 	0.19782930439073
scalar level3_network.node[6].core_layer 	interests[6] 	13465
scalar level3_network.node[6].core_layer 	data[6] 	9033
scalar level3_network.node[6].content_store 	p_hit[6] 	0.32914964723357
scalar level3_network.node[6].content_store 	hits[6] 	4432
scalar level3_network.node[6].content_store 	misses[6] 	9033
scalar level3_network.node[6].content_store 	decision_yes[6] 	1207
scalar level3_network.node[6].content_store 	decision_no[6] 	7826
scalar level3_network.node[6].content_store 	decision_ratio[6] 	0.13362116683272
scalar level3_network.node[7].core_layer 	interests[7] 	119170
scalar level3_network.node[7].core_layer 	repo_load[7] 	14579
scalar level3_network.node[7].core_layer 	data[7] 	98621
scalar level3_network.node[7].content_store 	p_hit[7] 	0.049710497608459
scalar level3_network.node[7].content_store 	hits[7] 	5924
scalar level3_network.node[7].content_store 	misses[7] 	113246
scalar level3_network.node[7].content_store 	decision_yes[7] 	32320
scalar level3_network.node[7].content_store 	decision_no[7] 	80872
scalar level3_network.node[7].content_store 	decision_ratio[7] 	0.28553254646972
scalar level3_network.node[8].core_layer 	interests[8] 	41783
scalar level3_network.node[8].core_layer 	repo_load[8] 	13866
scalar level3_network.node[8].core_layer 	data[8] 	22641
scalar level3_network.node[8].content_store 	p_hit[8] 	0.1260560515042
scalar level3_network.node[8].content_store 	hits[8] 	5267
scalar level3_network.node[8].content_store 	misses[8] 	36516
scalar level3_network.node[8].content_store 	decision_yes[8] 	20861
scalar level3_network.node[8].content_store 	decision_no[8] 	15646
scalar level3_network.node[8].content_store 	decision_ratio[8] 	0.57142465828471
scalar level3_network.node[9].core_layer 	interests[9] 	16939
scalar level3_network.node[9].core_layer 	data[9] 	8883
scalar level3_network.node[9].content_store 	p_hit[9] 	0.47558887773776
scalar level3_network.node[9].content_store 	hits[9] 	8056
scalar level3_network.node[9].content_store 	misses[9] 	8883
scalar level3_network.node[9].content_store 	decision_yes[9] 	1822
scalar level3_network.node[9].content_store 	decision_no[9] 	7061
scalar level3_network.node[9].content_store 	decision_ratio[9] 	0.20511088596195
scalar level3_network.node[10].core_layer 	interests[10] 	0
scalar level3_network.node[10].core_layer 	data[10] 	0
scalar level3_network.node[10].content_store 	p_hit[10] 	-nan
scalar level3_network.node[10].content_store 	hits[10] 	0
scalar level3_network.node[10].content_store 	misses[10] 	0
scalar level3_network.node[10].content_store 	decision_yes[10] 	0
scalar level3_network.node[10].content_store 	decision_no[10] 	0
scalar level3_network.node[10].content_store 	decision_ratio[10] 	0
scalar level3_network.node[11].core_layer 	interests[11] 	84234
scalar level3_network.node[11].core_layer 	repo_load[11] 	13527
scalar level3_network.node[11].core_layer 	data[11] 	64552
scalar level3_network.node[11].content_store 	p_hit[11] 	0.072607260726073
scalar level3_network.node[11].content_store 	hits[11] 	6116
scalar level3_network.node[11].content_store 	misses[11] 	78118
scalar level3_network.node[11].content_store 	decision_yes[11] 	23841
scalar level3_network.node[11].content_store 	decision_no[11] 	54234
scalar level3_network.node[11].content_store 	decision_ratio[11] 	0.30536023054755
scalar level3_network.node[12].core_layer 	interests[12] 	13984
scalar level3_network.node[12].core_layer 	data[12] 	9272
scalar level3_network.node[12].content_store 	p_hit[12] 	0.33688501144165
scalar level3_network.node[12].content_store 	hits[12] 	4711
scalar level3_network.node[12].content_store 	misses[12] 	9273
scalar level3_network.node[12].content_store 	decision_yes[12] 	1545
scalar level3_network.node[12].content_store 	decision_no[12] 	7727
scalar level3_network.node[12].content_store 	decision_ratio[12] 	0.1666307161346
scalar level3_network.node[13].core_layer 	interests[13] 	0
scalar level3_network.node[13].core_layer 	data[13] 	0
scalar level3_network.node[13].content_store 	p_hit[13] 	-nan
scalar level3_network.node[13].content_store 	hits[13] 	0
scalar level3_network.node[13].content_store 	misses[13] 	0
scalar level3_network.node[13].content_store 	decision_yes[13] 	0
scalar level3_network.node[13].content_store 	decision_no[13] 	0
scalar level3_network.node[13].content_store 	decision_ratio[13] 	0
scalar level3_network.node[14].core_layer 	interests[14] 	25853
scalar level3_network.node[14].core_layer 	repo_load[14] 	13283
scalar level3_network.node[14].core_layer 	data[14] 	9903
scalar level3_network.node[14].content_store 	p_hit[14] 	0.10308281437357
scalar level3_network.node[14].content_store 	hits[14] 	2665
scalar level3_network.node[14].content_store 	misses[14] 	23188
scalar level3_network.node[14].content_store 	decision_yes[14] 	15929
scalar level3_network.node[14].content_store 	decision_no[14] 	7257
scalar level3_network.node[14].content_store 	decision_ratio[14] 	0.68700940222548
scalar level3_network.node[15].core_layer 	interests[15] 	14019
scalar level3_network.node[15].core_layer 	data[15] 	9320
scalar level3_network.node[15].content_store 	p_hit[15] 	0.33525929096227
scalar level3_network.node[15].content_store 	hits[15] 	4700
scalar level3_network.node[15].content_store 	misses[15] 	9319
scalar level3_network.node[15].content_store 	decision_yes[15] 	1599
scalar level3_network.node[15].content_store 	decision_no[15] 	7721
scalar level3_network.node[15].content_store 	decision_ratio[15] 	0.17156652360515
scalar level3_network.node[16].core_layer 	interests[16] 	0
scalar level3_network.node[16].core_layer 	data[16] 	0
scalar level3_network.node[16].content_store 	p_hit[16] 	-nan
scalar level3_network.node[16].content_store 	hits[16] 	0
scalar level3_network.node[16].content_store 	misses[16] 	0
scalar level3_network.node[16].content_store 	decision_yes[16] 	0
scalar level3_network.node[16].content_store 	decision_no[16] 	0
scalar level3_network.node[16].content_store 	decision_ratio[16] 	0
scalar level3_network.node[17].core_layer 	interests[17] 	22026
scalar level3_network.node[17].core_layer 	data[17] 	9118
scalar level3_network.node[17].content_store 	p_hit[17] 	0.58589848361028
scalar level3_network.node[17].content_store 	hits[17] 	12905
scalar level3_network.node[17].content_store 	misses[17] 	9121
scalar level3_network.node[17].content_store 	decision_yes[17] 	2203
scalar level3_network.node[17].content_store 	decision_no[17] 	6915
scalar level3_network.node[17].content_store 	decision_ratio[17] 	0.24161000219346
scalar level3_network.node[18].core_layer 	interests[18] 	28824
scalar level3_network.node[18].core_layer 	data[18] 	14971
scalar level3_network.node[18].content_store 	p_hit[18] 	0.4804329725229
scalar level3_network.node[18].content_store 	hits[18] 	13848
scalar level3_network.node[18].content_store 	misses[18] 	14976
scalar level3_network.node[18].content_store 	decision_yes[18] 	4537
scalar level3_network.node[18].content_store 	decision_no[18] 	10434
scalar level3_network.node[18].content_store 	decision_ratio[18] 	0.30305256829871
scalar level3_network.node[19].core_layer 	interests[19] 	13858
scalar level3_network.node[19].core_layer 	repo_load[19] 	12915
scalar level3_network.node[19].core_layer 	data[19] 	0
scalar level3_network.node[19].content_store 	p_hit[19] 	0.068047337278107
scalar level3_network.node[19].content_store 	hits[19] 	943
scalar level3_network.node[19].content_store 	misses[19] 	12915
scalar level3_network.node[19].content_store 	decision_yes[19] 	12915
scalar level3_network.node[19].content_store 	decision_no[19] 	0
scalar level3_network.node[19].content_store 	decision_ratio[19] 	1
scalar level3_network.node[20].core_layer 	interests[20] 	0
scalar level3_network.node[20].core_layer 	data[20] 	0
scalar level3_network.node[20].content_store 	p_hit[20] 	-nan
scalar level3_network.node[20].content_store 	hits[20] 	0
scalar level3_network.node[20].content_store 	misses[20] 	0
scalar level3_network.node[20].content_store 	decision_yes[20] 	0
scalar level3_network.node[20].content_store 	decision_no[20] 	0
scalar level3_network.node[20].content_store 	decision_ratio[20] 	0
scalar level3_network.node[21].core_layer 	interests[21] 	13206
scalar level3_network.node[21].core_layer 	data[21] 	8757
scalar level3_network.node[21].content_store 	p_hit[21] 	0.33689232167197
scalar level3_network.node[21].content_store 	hits[21] 	4449
scalar level3_network.node[21].content_store 	misses[21] 	8757
scalar level3_network.node[21].content_store 	decision_yes[21] 	317
scalar level3_network.node[21].content_store 	decision_no[21] 	8440
scalar level3_network.node[21].content_store 	decision_ratio[21] 	0.03619961173918
scalar level3_network.node[22].core_layer 	interests[22] 	13892
scalar level3_network.node[22].core_layer 	data[22] 	8974
scalar level3_network.node[22].content_store 	p_hit[22] 	0.35380074863231
scalar level3_network.node[22].content_store 	hits[22] 	4915
scalar level3_network.node[22].content_store 	misses[22] 	8977
scalar level3_network.node[22].content_store 	decision_yes[22] 	1284
scalar level3_network.node[22].content_store 	decision_no[22] 	7690
scalar level3_network.node[22].content_store 	decision_ratio[22] 	0.14308000891464
scalar level3_network.node[23].core_layer 	interests[23] 	26077
scalar level3_network.node[23].core_layer 	repo_load[23] 	13777
scalar level3_network.node[23].core_layer 	data[23] 	9741
scalar level3_network.node[23].content_store 	p_hit[23] 	0.097902366069717
scalar level3_network.node[23].content_store 	hits[23] 	2553
scalar level3_network.node[23].content_store 	misses[23] 	23524
scalar level3_network.node[23].content_store 	decision_yes[23] 	16152
scalar level3_network.node[23].content_store 	decision_no[23] 	7366
scalar level3_network.node[23].content_store 	decision_ratio[23] 	0.68679309465091
scalar level3_network.node[24].core_layer 	interests[24] 	0
scalar level3_network.node[24].core_layer 	data[24] 	0
scalar level3_network.node[24].content_store 	p_hit[24] 	-nan
scalar level3_network.node[24].content_store 	hits[24] 	0
scalar level3_network.node[24].content_store 	misses[24] 	0
scalar level3_network.node[24].content_store 	decision_yes[24] 	0
scalar level3_network.node[24].content_store 	decision_no[24] 	0
scalar level3_network.node[24].content_store 	decision_ratio[24] 	0
scalar level3_network.node[25].core_layer 	interests[25] 	25836
scalar level3_network.node[25].core_layer 	repo_load[25] 	13255
scalar level3_network.node[25].core_layer 	data[25] 	10038
scalar level3_network.node[25].content_store 	p_hit[25] 	0.098389843629045
scalar level3_network.node[25].content_store 	hits[25] 	2542
scalar level3_network.node[25].content_store 	misses[25] 	23294
scalar level3_network.node[25].content_store 	decision_yes[25] 	15638
scalar level3_network.node[25].content_store 	decision_no[25] 	7655
scalar level3_network.node[25].content_store 	decision_ratio[25] 	0.67136049456918
scalar level3_network.node[26].core_layer 	interests[26] 	14468
scalar level3_network.node[26].core_layer 	repo_load[26] 	13362
scalar level3_network.node[26].core_layer 	data[26] 	0
scalar level3_network.node[26].content_store 	p_hit[26] 	0.076444567320984
scalar level3_network.node[26].content_store 	hits[26] 	1106
scalar level3_network.node[26].content_store 	misses[26] 	13362
scalar level3_network.node[26].content_store 	decision_yes[26] 	13362
scalar level3_network.node[26].content_store 	decision_no[26] 	0
scalar level3_network.node[26].content_store 	decision_ratio[26] 	1
scalar level3_network.node[27].core_layer 	interests[27] 	13656
scalar level3_network.node[27].core_layer 	data[27] 	8914
scalar level3_network.node[27].content_store 	p_hit[27] 	0.34702694786175
scalar level3_network.node[27].content_store 	hits[27] 	4739
scalar level3_network.node[27].content_store 	misses[27] 	8917
scalar level3_network.node[27].content_store 	decision_yes[27] 	1324
scalar level3_network.node[27].content_store 	decision_no[27] 	7590
scalar level3_network.node[27].content_store 	decision_ratio[27] 	0.14853040161544
scalar level3_network.node[28].core_layer 	interests[28] 	27011
scalar level3_network.node[28].core_layer 	repo_load[28] 	14384
scalar level3_network.node[28].core_layer 	data[28] 	9981
scalar level3_network.node[28].content_store 	p_hit[28] 	0.097849024471512
scalar level3_network.node[28].content_store 	hits[28] 	2643
scalar level3_network.node[28].content_store 	misses[28] 	24368
scalar level3_network.node[28].content_store 	decision_yes[28] 	17023
scalar level3_network.node[28].content_store 	decision_no[28] 	7342
scalar level3_network.node[28].content_store 	decision_ratio[28] 	0.69866611943361
scalar level3_network.node[29].core_layer 	interests[29] 	0
scalar level3_network.node[29].core_layer 	data[29] 	0
scalar level3_network.node[29].content_store 	p_hit[29] 	-nan
scalar level3_network.node[29].content_store 	hits[29] 	0
scalar level3_network.node[29].content_store 	misses[29] 	0
scalar level3_network.node[29].content_store 	decision_yes[29] 	0
scalar level3_network.node[29].content_store 	decision_no[29] 	0
scalar level3_network.node[29].content_store 	decision_ratio[29] 	0
scalar level3_network.node[30].core_layer 	interests[30] 	14337
scalar level3_network.node[30].core_layer 	data[30] 	8863
scalar level3_network.node[30].content_store 	p_hit[30] 	0.3818093045965
scalar level3_network.node[30].content_store 	hits[30] 	5474
scalar level3_network.node[30].content_store 	misses[30] 	8863
scalar level3_network.node[30].content_store 	decision_yes[30] 	1362
scalar level3_network.node[30].content_store 	decision_no[30] 	7501
scalar level3_network.node[30].content_store 	decision_ratio[30] 	0.1536725713641
scalar level3_network.node[31].core_layer 	interests[31] 	13852
scalar level3_network.node[31].core_layer 	data[31] 	9056
scalar level3_network.node[31].content_store 	p_hit[31] 	0.34608720762345
scalar level3_network.node[31].content_store 	hits[31] 	4794
scalar level3_network.node[31].content_store 	misses[31] 	9058
scalar level3_network.node[31].content_store 	decision_yes[31] 	1132
scalar level3_network.node[31].content_store 	decision_no[31] 	7924
scalar level3_network.node[31].content_store 	decision_ratio[31] 	0.125
scalar level3_network.node[32].core_layer 	interests[32] 	13816
scalar level3_network.node[32].core_layer 	data[32] 	8988
scalar level3_network.node[32].content_store 	p_hit[32] 	0.34937753329473
scalar level3_network.node[32].content_store 	hits[32] 	4827
scalar level3_network.node[32].content_store 	misses[32] 	8989
scalar level3_network.node[32].content_store 	decision_yes[32] 	1331
scalar level3_network.node[32].content_store 	decision_no[32] 	7657
scalar level3_network.node[32].content_store 	decision_ratio[32] 	0.14808633733867
scalar level3_network.node[33].core_layer 	interests[33] 	13859
scalar level3_network.node[33].core_layer 	data[33] 	9041
scalar level3_network.node[33].content_store 	p_hit[33] 	0.34764413016812
scalar level3_network.node[33].content_store 	hits[33] 	4818
scalar level3_network.node[33].content_store 	misses[33] 	9041
scalar level3_network.node[33].content_store 	decision_yes[33] 	1227
scalar level3_network.node[33].content_store 	decision_no[33] 	7814
scalar level3_network.node[33].content_store 	decision_ratio[33] 	0.13571507576596
scalar level3_network.node[34].core_layer 	interests[34] 	14185
scalar level3_network.node[34].core_layer 	data[34] 	9154
scalar level3_network.node[34].content_store 	p_hit[34] 	0.35467042650687
scalar level3_network.node[34].content_store 	hits[34] 	5031
scalar level3_network.node[34].content_store 	misses[34] 	9154
scalar level3_network.node[34].content_store 	decision_yes[34] 	1369
scalar level3_network.node[34].content_store 	decision_no[34] 	7785
scalar level3_network.node[34].content_store 	decision_ratio[34] 	0.14955210836793
scalar level3_network.node[35].core_layer 	interests[35] 	0
scalar level3_network.node[35].core_layer 	data[35] 	0
scalar level3_network.node[35].content_store 	p_hit[35] 	-nan
scalar level3_network.node[35].content_store 	hits[35] 	0
scalar level3_network.node[35].content_store 	misses[35] 	0
scalar level3_network.node[35].content_store 	decision_yes[35] 	0
scalar level3_network.node[35].content_store 	decision_no[35] 	0
scalar level3_network.node[35].content_store 	decision_ratio[35] 	0
scalar level3_network.node[36].core_layer 	interests[36] 	13948
scalar level3_network.node[36].core_layer 	data[36] 	9128
scalar level3_network.node[36].content_store 	p_hit[36] 	0.34556925724118
scalar level3_network.node[36].content_store 	hits[36] 	4820
scalar level3_network.node[36].content_store 	misses[36] 	9128
scalar level3_network.node[36].content_store 	decision_yes[36] 	1159
scalar level3_network.node[36].content_store 	decision_no[36] 	7969
scalar level3_network.node[36].content_store 	decision_ratio[36] 	0.12697195442594
scalar level3_network.node[37].core_layer 	interests[37] 	13909
scalar level3_network.node[37].core_layer 	data[37] 	9049
scalar level3_network.node[37].content_store 	p_hit[37] 	0.3491983607736
scalar level3_network.node[37].content_store 	hits[37] 	4857
scalar level3_network.node[37].content_store 	misses[37] 	9052
scalar level3_network.node[37].content_store 	decision_yes[37] 	1178
scalar level3_network.node[37].content_store 	decision_no[37] 	7871
scalar level3_network.node[37].content_store 	decision_ratio[37] 	0.13018013040115
scalar level3_network.node[38].core_layer 	interests[38] 	26096
scalar level3_network.node[38].core_layer 	repo_load[38] 	13392
scalar level3_network.node[38].core_layer 	data[38] 	9947
scalar level3_network.node[38].content_store 	p_hit[38] 	0.10511189454323
scalar level3_network.node[38].content_store 	hits[38] 	2743
scalar level3_network.node[38].content_store 	misses[38] 	23353
scalar level3_network.node[38].content_store 	decision_yes[38] 	15966
scalar level3_network.node[38].content_store 	decision_no[38] 	7373
scalar level3_network.node[38].content_store 	decision_ratio[38] 	0.68409100646986
scalar level3_network.node[39].core_layer 	interests[39] 	26358
scalar level3_network.node[39].core_layer 	repo_load[39] 	13739
scalar level3_network.node[39].core_layer 	data[39] 	9947
scalar level3_network.node[39].content_store 	p_hit[39] 	0.1010319447606
scalar level3_network.node[39].content_store 	hits[39] 	2663
scalar level3_network.node[39].content_store 	misses[39] 	23695
scalar level3_network.node[39].content_store 	decision_yes[39] 	16246
scalar level3_network.node[39].content_store 	decision_no[39] 	7440
scalar level3_network.node[39].content_store 	decision_ratio[39] 	0.68589039939205
scalar level3_network.node[40].core_layer 	interests[40] 	13493
scalar level3_network.node[40].core_layer 	data[40] 	8930
scalar level3_network.node[40].content_store 	p_hit[40] 	0.33795301267324
scalar level3_network.node[40].content_store 	hits[40] 	4560
scalar level3_network.node[40].content_store 	misses[40] 	8933
scalar level3_network.node[40].content_store 	decision_yes[40] 	241
scalar level3_network.node[40].content_store 	decision_no[40] 	8689
scalar level3_network.node[40].content_store 	decision_ratio[40] 	0.026987681970885
scalar level3_network.node[41].core_layer 	interests[41] 	0
scalar level3_network.node[41].core_layer 	data[41] 	0
scalar level3_network.node[41].content_store 	p_hit[41] 	-nan
scalar level3_network.node[41].content_store 	hits[41] 	0
scalar level3_network.node[41].content_store 	misses[41] 	0
scalar level3_network.node[41].content_store 	decision_yes[41] 	0
scalar level3_network.node[41].content_store 	decision_no[41] 	0
scalar level3_network.node[41].content_store 	decision_ratio[41] 	0
scalar level3_network.node[42].core_layer 	interests[42] 	26035
scalar level3_network.node[42].core_layer 	repo_load[42] 	13584
scalar level3_network.node[42].core_layer 	data[42] 	9764
scalar level3_network.node[42].content_store 	p_hit[42] 	0.10297676205109
scalar level3_network.node[42].content_store 	hits[42] 	2681
scalar level3_network.node[42].content_store 	misses[42] 	23354
scalar level3_network.node[42].content_store 	decision_yes[42] 	15516
scalar level3_network.node[42].content_store 	decision_no[42] 	7832
scalar level3_network.node[42].content_store 	decision_ratio[42] 	0.66455370909714
scalar level3_network.node[43].core_layer 	interests[43] 	13324
scalar level3_network.node[43].core_layer 	data[43] 	8934
scalar level3_network.node[43].content_store 	p_hit[43] 	0.32948063644551
scalar level3_network.node[43].content_store 	hits[43] 	4390
scalar level3_network.node[43].content_store 	misses[43] 	8934
scalar level3_network.node[43].content_store 	decision_yes[43] 	343
scalar level3_network.node[43].content_store 	decision_no[43] 	8591
scalar level3_network.node[43].content_store 	decision_ratio[43] 	0.038392657264383
scalar level3_network.node[44].core_layer 	interests[44] 	14410
scalar level3_network.node[44].core_layer 	repo_load[44] 	13358
scalar level3_network.node[44].core_layer 	data[44] 	0
scalar level3_network.node[44].content_store 	p_hit[44] 	0.073004857737682
scalar level3_network.node[44].content_store 	hits[44] 	1052
scalar level3_network.node[44].content_store 	misses[44] 	13358
scalar level3_network.node[44].content_store 	decision_yes[44] 	13358
scalar level3_network.node[44].content_store 	decision_no[44] 	0
scalar level3_network.node[44].content_store 	decision_ratio[44] 	1
scalar level3_network.node[45].core_layer 	interests[45] 	13486
scalar level3_network.node[45].core_layer 	data[45] 	8938
scalar level3_network.node[45].content_store 	p_hit[45] 	0.33701616491176
scalar level3_network.node[45].content_store 	hits[45] 	4545
scalar level3_network.node[45].content_store 	misses[45] 	8941
scalar level3_network.node[45].content_store 	decision_yes[45] 	512
scalar level3_network.node[45].content_store 	decision_no[45] 	8426
scalar level3_network.node[45].content_store 	decision_ratio[45] 	0.057283508614903
scalar level3_network.client[2] 	hdistance[2] 	1.794369950862
scalar level3_network.client[2] 	downloads[2] 	12007
scalar level3_network.client[2] 	avg_time[2] 	0.040326271744
scalar level3_network.client[3] 	hdistance[3] 	1.7858626131739
scalar level3_network.client[3] 	downloads[3] 	12039
scalar level3_network.client[3] 	avg_time[3] 	0.041476914151
scalar level3_network.client[4] 	hdistance[4] 	1.9385498438423
scalar level3_network.client[4] 	downloads[4] 	11847
scalar level3_network.client[4] 	avg_time[4] 	0.042210853393
scalar level3_network.client[6] 	hdistance[6] 	1.9278918377566
scalar level3_network.client[6] 	downloads[6] 	11982
scalar level3_network.client[6] 	avg_time[6] 	0.026512261831
scalar level3_network.client[7] 	hdistance[7] 	1.584387662284
scalar level3_network.client[7] 	downloads[7] 	12093
scalar level3_network.client[7] 	avg_time[7] 	0.023218526251
scalar level3_network.client[8] 	hdistance[8] 	1.6309087882823
scalar level3_network.client[8] 	downloads[8] 	12016
scalar level3_network.client[8] 	avg_time[8] 	0.026469857599
scalar level3_network.client[9] 	hdistance[9] 	1.6928901977282
scalar level3_network.client[9] 	downloads[9] 	11885
scalar level3_network.client[9] 	avg_time[9] 	0.027474329431
scalar level3_network.client[11] 	hdistance[11] 	1.4286665002912
scalar level3_network.client[11] 	downloads[11] 	12021
scalar level3_network.client[11] 	avg_time[11] 	0.022875183072
scalar level3_network.client[12] 	hdistance[12] 	1.8824491130549
scalar level3_network.client[12] 	downloads[12] 	12233
scalar level3_network.client[12] 	avg_time[12] 	0.035587800896
scalar level3_network.client[14] 	hdistance[14] 	1.9324956885932
scalar level3_network.client[14] 	downloads[14] 	12177
scalar level3_network.client[14] 	avg_time[14] 	0.024977989106
scalar level3_network.client[15] 	hdistance[15] 	1.8866264863984
scalar level3_network.client[15] 	downloads[15] 	12278
scalar level3_network.client[15] 	avg_time[15] 	0.039193086373
scalar level3_network.client[17] 	hdistance[17] 	1.4613419057039
scalar level3_network.client[17] 	downloads[17] 	12132
scalar level3_network.client[17] 	avg_time[17] 	0.033648535538
scalar level3_network.client[18] 	hdistance[18] 	1.4036099273001
scalar level3_network.client[18] 	downloads[18] 	11967
scalar level3_network.client[18] 	avg_time[18] 	0.021257228789
scalar level3_network.client[21] 	hdistance[21] 	2.3452141900937
scalar level3_network.client[21] 	downloads[21] 	11952
scalar level3_network.client[21] 	avg_time[21] 	0.040408161897
scalar level3_network.client[22] 	hdistance[22] 	1.8727348295927
scalar level3_network.client[22] 	downloads[22] 	12030
scalar level3_network.client[22] 	avg_time[22] 	0.026117982557
scalar level3_network.client[23] 	hdistance[23] 	1.9595459588632
scalar level3_network.client[23] 	downloads[23] 	11717
scalar level3_network.client[23] 	avg_time[23] 	0.024187116598
scalar level3_network.client[25] 	hdistance[25] 	1.9719548622635
scalar level3_network.client[25] 	downloads[25] 	12052
scalar level3_network.client[25] 	avg_time[25] 	0.02405840512
scalar level3_network.client[27] 	hdistance[27] 	1.8817458974793
scalar level3_network.client[27] 	downloads[27] 	11822
scalar level3_network.client[27] 	avg_time[27] 	0.036427812238
scalar level3_network.client[28] 	hdistance[28] 	1.9368836291913
scalar level3_network.client[28] 	downloads[28] 	12168
scalar level3_network.client[28] 	avg_time[28] 	0.033099241392
scalar level3_network.client[30] 	hdistance[30] 	1.827542693699
scalar level3_network.client[30] 	downloads[30] 	11887
scalar level3_network.client[30] 	avg_time[30] 	0.022961301058
scalar level3_network.client[31] 	hdistance[31] 	1.9007215725305
scalar level3_network.client[31] 	downloads[31] 	12057
scalar level3_network.client[31] 	avg_time[31] 	0.040361859564
scalar level3_network.client[32] 	hdistance[32] 	1.891984892992
scalar level3_network.client[32] 	downloads[32] 	11915
scalar level3_network.client[32] 	avg_time[32] 	0.033769869734
scalar level3_network.client[33] 	hdistance[33] 	1.8632492903657
scalar level3_network.client[33] 	downloads[33] 	11978
scalar level3_network.client[33] 	avg_time[33] 	0.030007730139
scalar level3_network.client[34] 	hdistance[34] 	1.8642868759148
scalar level3_network.client[34] 	downloads[34] 	12298
scalar level3_network.client[34] 	avg_time[34] 	0.040040687808
scalar level3_network.client[36] 	hdistance[36] 	1.8980682285245
scalar level3_network.client[36] 	downloads[36] 	12165
scalar level3_network.client[36] 	avg_time[36] 	0.024762484567
scalar level3_network.client[37] 	hdistance[37] 	1.8930885529158
scalar level3_network.client[37] 	downloads[37] 	12038
scalar level3_network.client[37] 	avg_time[37] 	0.029480689443
scalar level3_network.client[38] 	hdistance[38] 	1.9406674907293
scalar level3_network.client[38] 	downloads[38] 	12135
scalar level3_network.client[38] 	avg_time[38] 	0.039564613431
scalar level3_network.client[39] 	hdistance[39] 	1.9462837278596
scalar level3_network.client[39] 	downloads[39] 	12082
scalar level3_network.client[39] 	avg_time[39] 	0.024634904594
scalar level3_network.client[40] 	hdistance[40] 	2.1911813643927
scalar level3_network.client[40] 	downloads[40] 	12020
scalar level3_network.client[40] 	avg_time[40] 	0.030913391392
scalar level3_network.client[42] 	hdistance[42] 	1.9755361930295
scalar level3_network.client[42] 	downloads[42] 	11936
scalar level3_network.client[42] 	avg_time[42] 	0.044561785809
scalar level3_network.client[43] 	hdistance[43] 	2.3545131132622
scalar level3_network.client[43] 	downloads[43] 	12087
scalar level3_network.client[43] 	avg_time[43] 	0.043131132084
scalar level3_network.client[45] 	hdistance[45] 	1.9776976607697
scalar level3_network.client[45] 	downloads[45] 	11927
scalar level3_network.client[45] 	avg_time[45] 	0.045692834655
