version 2
run General-66-20160825-21:03:32-3010
attr D lcd
attr F nrr
attr R lru
attr a 0.9
attr configname General
attr datetime 20160825-21:03:32
attr experiment General
attr inifile hw5115/scenario_C/omnetp.ini
attr iterationvars "$net=level3, $rep=8, $a=0.9, $F=nrr, $D=lcd, $R=lru, $window=60, $variance=0.05, $mytime=600"
attr iterationvars2 "$net=level3, $rep=8, $a=0.9, $F=nrr, $D=lcd, $R=lru, $window=60, $variance=0.05, $mytime=600, $repetition=0"
attr measurement "$net=level3, $rep=8, $a=0.9, $F=nrr, $D=lcd, $R=lru, $window=60, $variance=0.05, $mytime=600"
attr mytime 600
attr net level3
attr network networks.${net=level3}_network
attr processid 3010
attr rep 8
attr repetition 0
attr replication #0
attr resultdir results
attr runnumber 66
attr seedset 8
attr variance 0.05
attr window 60

scalar . 	a 	0.9
scalar . 	mytime 	600
scalar . 	rep 	8
scalar . 	variance 	0.05
scalar . 	window 	60
scalar level3_network.content_distribution 	repo-0 	4
scalar level3_network.content_distribution 	repo-1 	26
scalar level3_network.content_distribution 	repo-2 	15
scalar level3_network.content_distribution 	repo-3 	23
scalar level3_network.content_distribution 	repo-4 	44
scalar level3_network.content_distribution 	repo-5 	8
scalar level3_network.content_distribution 	repo-6 	28
scalar level3_network.content_distribution 	repo-7 	25
scalar level3_network.content_distribution 	repo-8 	31
scalar level3_network.content_distribution 	repo-9 	5
scalar level3_network.content_distribution 	repo-10 	1
scalar level3_network.content_distribution 	repo-11 	39
scalar level3_network.content_distribution 	repo-12 	3
scalar level3_network.content_distribution 	repo-13 	24
scalar level3_network.content_distribution 	repo-14 	20
scalar level3_network.content_distribution 	repo-15 	45
scalar level3_network.content_distribution 	client-0 	21
scalar level3_network.content_distribution 	client-1 	9
scalar level3_network.content_distribution 	client-2 	38
scalar level3_network.content_distribution 	client-3 	2
scalar level3_network.content_distribution 	client-4 	30
scalar level3_network.content_distribution 	client-5 	8
scalar level3_network.content_distribution 	client-6 	23
scalar level3_network.content_distribution 	client-7 	32
scalar level3_network.content_distribution 	client-8 	40
scalar level3_network.content_distribution 	client-9 	42
scalar level3_network.content_distribution 	client-10 	45
scalar level3_network.content_distribution 	client-11 	33
scalar level3_network.content_distribution 	client-12 	28
scalar level3_network.content_distribution 	client-13 	3
scalar level3_network.content_distribution 	client-14 	15
scalar level3_network.content_distribution 	client-15 	34
scalar level3_network.content_distribution 	client-16 	31
scalar level3_network.content_distribution 	client-17 	17
scalar level3_network.content_distribution 	client-18 	25
scalar level3_network.content_distribution 	client-19 	12
scalar level3_network.content_distribution 	client-20 	22
scalar level3_network.content_distribution 	client-21 	11
scalar level3_network.content_distribution 	client-22 	6
scalar level3_network.content_distribution 	client-23 	39
scalar level3_network.content_distribution 	client-24 	7
scalar level3_network.content_distribution 	client-25 	18
scalar level3_network.content_distribution 	client-26 	36
scalar level3_network.content_distribution 	client-27 	27
scalar level3_network.content_distribution 	client-28 	43
scalar level3_network.content_distribution 	client-29 	37
scalar level3_network.content_distribution 	client-30 	4
scalar level3_network.content_distribution 	client-31 	14
scalar level3_network.content_distribution 	repo-0_card 	6204
scalar level3_network.content_distribution 	repo-0_price 	0
scalar level3_network.content_distribution 	repo-1_card 	6317
scalar level3_network.content_distribution 	repo-1_price 	0
scalar level3_network.content_distribution 	repo-2_card 	6111
scalar level3_network.content_distribution 	repo-2_price 	0
scalar level3_network.content_distribution 	repo-3_card 	6351
scalar level3_network.content_distribution 	repo-3_price 	0
scalar level3_network.content_distribution 	repo-4_card 	6338
scalar level3_network.content_distribution 	repo-4_price 	0
scalar level3_network.content_distribution 	repo-5_card 	6223
scalar level3_network.content_distribution 	repo-5_price 	0
scalar level3_network.content_distribution 	repo-6_card 	6196
scalar level3_network.content_distribution 	repo-6_price 	0
scalar level3_network.content_distribution 	repo-7_card 	6310
scalar level3_network.content_distribution 	repo-7_price 	0
scalar level3_network.content_distribution 	repo-8_card 	6323
scalar level3_network.content_distribution 	repo-8_price 	0
scalar level3_network.content_distribution 	repo-9_card 	6231
scalar level3_network.content_distribution 	repo-9_price 	0
scalar level3_network.content_distribution 	repo-10_card 	6186
scalar level3_network.content_distribution 	repo-10_price 	0
scalar level3_network.content_distribution 	repo-11_card 	6137
scalar level3_network.content_distribution 	repo-11_price 	0
scalar level3_network.content_distribution 	repo-12_card 	6315
scalar level3_network.content_distribution 	repo-12_price 	0
scalar level3_network.content_distribution 	repo-13_card 	6325
scalar level3_network.content_distribution 	repo-13_price 	0
scalar level3_network.content_distribution 	repo-14_card 	6116
scalar level3_network.content_distribution 	repo-14_price 	0
scalar level3_network.content_distribution 	repo-15_card 	6317
scalar level3_network.content_distribution 	repo-15_price 	0
scalar level3_network.statistics 	stabilization_time 	2767.2
scalar level3_network.statistics 	p_hit 	0.24108504072928
scalar level3_network.statistics 	interests 	19803.695652174
scalar level3_network.statistics 	data 	11461.891304348
scalar level3_network.statistics 	hdistance 	1.9350647050239
scalar level3_network.statistics 	avg_time 	0.034900746178
scalar level3_network.statistics 	downloads 	383619
scalar level3_network.statistics 	total_cost 	0
scalar level3_network.statistics 	total_replicas 	100000
scalar level3_network.statistics 	inner_hit 	0.43990261170589
scalar level3_network.node[0].core_layer 	interests[0] 	1974
scalar level3_network.node[0].core_layer 	data[0] 	360
scalar level3_network.node[0].core_layer 	repo_int[0] 	214864
scalar level3_network.node[0].content_store 	p_hit[0] 	0.81762917933131
scalar level3_network.node[0].content_store 	hits[0] 	1614
scalar level3_network.node[0].content_store 	misses[0] 	360
scalar level3_network.node[0].content_store 	decision_yes[0] 	19
scalar level3_network.node[0].content_store 	decision_no[0] 	341
scalar level3_network.node[0].content_store 	decision_ratio[0] 	0.052777777777778
scalar level3_network.node[1].core_layer 	interests[1] 	11858
scalar level3_network.node[1].core_layer 	repo_load[1] 	11188
scalar level3_network.node[1].core_layer 	data[1] 	0
scalar level3_network.node[1].content_store 	p_hit[1] 	0.056501939618823
scalar level3_network.node[1].content_store 	hits[1] 	670
scalar level3_network.node[1].content_store 	misses[1] 	11188
scalar level3_network.node[1].content_store 	decision_yes[1] 	11188
scalar level3_network.node[1].content_store 	decision_no[1] 	0
scalar level3_network.node[1].content_store 	decision_ratio[1] 	1
scalar level3_network.node[2].core_layer 	interests[2] 	42630
scalar level3_network.node[2].core_layer 	data[2] 	37694
scalar level3_network.node[2].content_store 	p_hit[2] 	0.1157400891391
scalar level3_network.node[2].content_store 	hits[2] 	4934
scalar level3_network.node[2].content_store 	misses[2] 	37696
scalar level3_network.node[2].content_store 	decision_yes[2] 	6830
scalar level3_network.node[2].content_store 	decision_no[2] 	30864
scalar level3_network.node[2].content_store 	decision_ratio[2] 	0.18119594630445
scalar level3_network.node[3].core_layer 	interests[3] 	47664
scalar level3_network.node[3].core_layer 	repo_load[3] 	14243
scalar level3_network.node[3].core_layer 	data[3] 	30052
scalar level3_network.node[3].content_store 	p_hit[3] 	0.070388553205774
scalar level3_network.node[3].content_store 	hits[3] 	3355
scalar level3_network.node[3].content_store 	misses[3] 	44309
scalar level3_network.node[3].content_store 	decision_yes[3] 	19656
scalar level3_network.node[3].content_store 	decision_no[3] 	24637
scalar level3_network.node[3].content_store 	decision_ratio[3] 	0.44377215361344
scalar level3_network.node[4].core_layer 	interests[4] 	26662
scalar level3_network.node[4].core_layer 	repo_load[4] 	14159
scalar level3_network.node[4].core_layer 	data[4] 	9943
scalar level3_network.node[4].content_store 	p_hit[4] 	0.095754256994974
scalar level3_network.node[4].content_store 	hits[4] 	2553
scalar level3_network.node[4].content_store 	misses[4] 	24109
scalar level3_network.node[4].content_store 	decision_yes[4] 	16156
scalar level3_network.node[4].content_store 	decision_no[4] 	7946
scalar level3_network.node[4].content_store 	decision_ratio[4] 	0.67031781594888
scalar level3_network.node[5].core_layer 	interests[5] 	16189
scalar level3_network.node[5].core_layer 	repo_load[5] 	13189
scalar level3_network.node[5].core_layer 	data[5] 	1792
scalar level3_network.node[5].content_store 	p_hit[5] 	0.074618568163568
scalar level3_network.node[5].content_store 	hits[5] 	1208
scalar level3_network.node[5].content_store 	misses[5] 	14981
scalar level3_network.node[5].content_store 	decision_yes[5] 	13708
scalar level3_network.node[5].content_store 	decision_no[5] 	1273
scalar level3_network.node[5].content_store 	decision_ratio[5] 	0.91502569921901
scalar level3_network.node[6].core_layer 	interests[6] 	13576
scalar level3_network.node[6].core_layer 	data[6] 	9174
scalar level3_network.node[6].content_store 	p_hit[6] 	0.32410135533294
scalar level3_network.node[6].content_store 	hits[6] 	4400
scalar level3_network.node[6].content_store 	misses[6] 	9176
scalar level3_network.node[6].content_store 	decision_yes[6] 	1074
scalar level3_network.node[6].content_store 	decision_no[6] 	8100
scalar level3_network.node[6].content_store 	decision_ratio[6] 	0.11706998037933
scalar level3_network.node[7].core_layer 	interests[7] 	112497
scalar level3_network.node[7].core_layer 	data[7] 	104060
scalar level3_network.node[7].content_store 	p_hit[7] 	0.074624212201214
scalar level3_network.node[7].content_store 	hits[7] 	8395
scalar level3_network.node[7].content_store 	misses[7] 	104102
scalar level3_network.node[7].content_store 	decision_yes[7] 	15859
scalar level3_network.node[7].content_store 	decision_no[7] 	88196
scalar level3_network.node[7].content_store 	decision_ratio[7] 	0.15240978328768
scalar level3_network.node[8].core_layer 	interests[8] 	41891
scalar level3_network.node[8].core_layer 	repo_load[8] 	14187
scalar level3_network.node[8].core_layer 	data[8] 	22522
scalar level3_network.node[8].content_store 	p_hit[8] 	0.12341553078227
scalar level3_network.node[8].content_store 	hits[8] 	5170
scalar level3_network.node[8].content_store 	misses[8] 	36721
scalar level3_network.node[8].content_store 	decision_yes[8] 	20519
scalar level3_network.node[8].content_store 	decision_no[8] 	16190
scalar level3_network.node[8].content_store 	decision_ratio[8] 	0.55896374186167
scalar level3_network.node[9].core_layer 	interests[9] 	16406
scalar level3_network.node[9].core_layer 	data[9] 	8941
scalar level3_network.node[9].content_store 	p_hit[9] 	0.45501645739364
scalar level3_network.node[9].content_store 	hits[9] 	7465
scalar level3_network.node[9].content_store 	misses[9] 	8941
scalar level3_network.node[9].content_store 	decision_yes[9] 	1849
scalar level3_network.node[9].content_store 	decision_no[9] 	7092
scalar level3_network.node[9].content_store 	decision_ratio[9] 	0.20680013421318
scalar level3_network.node[10].core_layer 	interests[10] 	0
scalar level3_network.node[10].core_layer 	data[10] 	0
scalar level3_network.node[10].content_store 	p_hit[10] 	-nan
scalar level3_network.node[10].content_store 	hits[10] 	0
scalar level3_network.node[10].content_store 	misses[10] 	0
scalar level3_network.node[10].content_store 	decision_yes[10] 	0
scalar level3_network.node[10].content_store 	decision_no[10] 	0
scalar level3_network.node[10].content_store 	decision_ratio[10] 	0
scalar level3_network.node[11].core_layer 	interests[11] 	75866
scalar level3_network.node[11].core_layer 	data[11] 	65529
scalar level3_network.node[11].content_store 	p_hit[11] 	0.13537025808663
scalar level3_network.node[11].content_store 	hits[11] 	10270
scalar level3_network.node[11].content_store 	misses[11] 	65596
scalar level3_network.node[11].content_store 	decision_yes[11] 	9307
scalar level3_network.node[11].content_store 	decision_no[11] 	56220
scalar level3_network.node[11].content_store 	decision_ratio[11] 	0.14203305507653
scalar level3_network.node[12].core_layer 	interests[12] 	13718
scalar level3_network.node[12].core_layer 	data[12] 	9006
scalar level3_network.node[12].content_store 	p_hit[12] 	0.34349030470914
scalar level3_network.node[12].content_store 	hits[12] 	4712
scalar level3_network.node[12].content_store 	misses[12] 	9006
scalar level3_network.node[12].content_store 	decision_yes[12] 	1586
scalar level3_network.node[12].content_store 	decision_no[12] 	7420
scalar level3_network.node[12].content_store 	decision_ratio[12] 	0.17610481900955
scalar level3_network.node[13].core_layer 	interests[13] 	0
scalar level3_network.node[13].core_layer 	data[13] 	0
scalar level3_network.node[13].content_store 	p_hit[13] 	-nan
scalar level3_network.node[13].content_store 	hits[13] 	0
scalar level3_network.node[13].content_store 	misses[13] 	0
scalar level3_network.node[13].content_store 	decision_yes[13] 	0
scalar level3_network.node[13].content_store 	decision_no[13] 	0
scalar level3_network.node[13].content_store 	decision_ratio[13] 	0
scalar level3_network.node[14].core_layer 	interests[14] 	14055
scalar level3_network.node[14].core_layer 	data[14] 	9128
scalar level3_network.node[14].content_store 	p_hit[14] 	0.35062255425116
scalar level3_network.node[14].content_store 	hits[14] 	4928
scalar level3_network.node[14].content_store 	misses[14] 	9127
scalar level3_network.node[14].content_store 	decision_yes[14] 	1562
scalar level3_network.node[14].content_store 	decision_no[14] 	7566
scalar level3_network.node[14].content_store 	decision_ratio[14] 	0.17112182296231
scalar level3_network.node[15].core_layer 	interests[15] 	26204
scalar level3_network.node[15].core_layer 	repo_load[15] 	13866
scalar level3_network.node[15].core_layer 	data[15] 	9664
scalar level3_network.node[15].content_store 	p_hit[15] 	0.10166386811174
scalar level3_network.node[15].content_store 	hits[15] 	2664
scalar level3_network.node[15].content_store 	misses[15] 	23540
scalar level3_network.node[15].content_store 	decision_yes[15] 	16414
scalar level3_network.node[15].content_store 	decision_no[15] 	7116
scalar level3_network.node[15].content_store 	decision_ratio[15] 	0.69757756056099
scalar level3_network.node[16].core_layer 	interests[16] 	0
scalar level3_network.node[16].core_layer 	data[16] 	0
scalar level3_network.node[16].content_store 	p_hit[16] 	-nan
scalar level3_network.node[16].content_store 	hits[16] 	0
scalar level3_network.node[16].content_store 	misses[16] 	0
scalar level3_network.node[16].content_store 	decision_yes[16] 	0
scalar level3_network.node[16].content_store 	decision_no[16] 	0
scalar level3_network.node[16].content_store 	decision_ratio[16] 	0
scalar level3_network.node[17].core_layer 	interests[17] 	21206
scalar level3_network.node[17].core_layer 	data[17] 	8973
scalar level3_network.node[17].content_store 	p_hit[17] 	0.57681788173159
scalar level3_network.node[17].content_store 	hits[17] 	12232
scalar level3_network.node[17].content_store 	misses[17] 	8974
scalar level3_network.node[17].content_store 	decision_yes[17] 	2202
scalar level3_network.node[17].content_store 	decision_no[17] 	6771
scalar level3_network.node[17].content_store 	decision_ratio[17] 	0.24540287529254
scalar level3_network.node[18].core_layer 	interests[18] 	38221
scalar level3_network.node[18].core_layer 	data[18] 	24540
scalar level3_network.node[18].content_store 	p_hit[18] 	0.35763062190942
scalar level3_network.node[18].content_store 	hits[18] 	13669
scalar level3_network.node[18].content_store 	misses[18] 	24552
scalar level3_network.node[18].content_store 	decision_yes[18] 	4444
scalar level3_network.node[18].content_store 	decision_no[18] 	20096
scalar level3_network.node[18].content_store 	decision_ratio[18] 	0.18109209453953
scalar level3_network.node[19].core_layer 	interests[19] 	0
scalar level3_network.node[19].core_layer 	data[19] 	0
scalar level3_network.node[19].content_store 	p_hit[19] 	-nan
scalar level3_network.node[19].content_store 	hits[19] 	0
scalar level3_network.node[19].content_store 	misses[19] 	0
scalar level3_network.node[19].content_store 	decision_yes[19] 	0
scalar level3_network.node[19].content_store 	decision_no[19] 	0
scalar level3_network.node[19].content_store 	decision_ratio[19] 	0
scalar level3_network.node[20].core_layer 	interests[20] 	14077
scalar level3_network.node[20].core_layer 	repo_load[20] 	13129
scalar level3_network.node[20].core_layer 	data[20] 	0
scalar level3_network.node[20].content_store 	p_hit[20] 	0.06734389429566
scalar level3_network.node[20].content_store 	hits[20] 	948
scalar level3_network.node[20].content_store 	misses[20] 	13129
scalar level3_network.node[20].content_store 	decision_yes[20] 	13129
scalar level3_network.node[20].content_store 	decision_no[20] 	0
scalar level3_network.node[20].content_store 	decision_ratio[20] 	1
scalar level3_network.node[21].core_layer 	interests[21] 	13360
scalar level3_network.node[21].core_layer 	data[21] 	8911
scalar level3_network.node[21].content_store 	p_hit[21] 	0.33293413173653
scalar level3_network.node[21].content_store 	hits[21] 	4448
scalar level3_network.node[21].content_store 	misses[21] 	8912
scalar level3_network.node[21].content_store 	decision_yes[21] 	387
scalar level3_network.node[21].content_store 	decision_no[21] 	8524
scalar level3_network.node[21].content_store 	decision_ratio[21] 	0.043429469195376
scalar level3_network.node[22].core_layer 	interests[22] 	14047
scalar level3_network.node[22].core_layer 	data[22] 	9153
scalar level3_network.node[22].content_store 	p_hit[22] 	0.34818822524382
scalar level3_network.node[22].content_store 	hits[22] 	4891
scalar level3_network.node[22].content_store 	misses[22] 	9156
scalar level3_network.node[22].content_store 	decision_yes[22] 	1404
scalar level3_network.node[22].content_store 	decision_no[22] 	7749
scalar level3_network.node[22].content_store 	decision_ratio[22] 	0.15339233038348
scalar level3_network.node[23].core_layer 	interests[23] 	26692
scalar level3_network.node[23].core_layer 	repo_load[23] 	14316
scalar level3_network.node[23].core_layer 	data[23] 	9813
scalar level3_network.node[23].content_store 	p_hit[23] 	0.095946350966582
scalar level3_network.node[23].content_store 	hits[23] 	2561
scalar level3_network.node[23].content_store 	misses[23] 	24131
scalar level3_network.node[23].content_store 	decision_yes[23] 	16912
scalar level3_network.node[23].content_store 	decision_no[23] 	7217
scalar level3_network.node[23].content_store 	decision_ratio[23] 	0.70089933275312
scalar level3_network.node[24].core_layer 	interests[24] 	14215
scalar level3_network.node[24].core_layer 	repo_load[24] 	13229
scalar level3_network.node[24].core_layer 	data[24] 	0
scalar level3_network.node[24].content_store 	p_hit[24] 	0.069363348575448
scalar level3_network.node[24].content_store 	hits[24] 	986
scalar level3_network.node[24].content_store 	misses[24] 	13229
scalar level3_network.node[24].content_store 	decision_yes[24] 	13229
scalar level3_network.node[24].content_store 	decision_no[24] 	0
scalar level3_network.node[24].content_store 	decision_ratio[24] 	1
scalar level3_network.node[25].core_layer 	interests[25] 	25044
scalar level3_network.node[25].core_layer 	repo_load[25] 	12894
scalar level3_network.node[25].core_layer 	data[25] 	9730
scalar level3_network.node[25].content_store 	p_hit[25] 	0.09647021242613
scalar level3_network.node[25].content_store 	hits[25] 	2416
scalar level3_network.node[25].content_store 	misses[25] 	22628
scalar level3_network.node[25].content_store 	decision_yes[25] 	15379
scalar level3_network.node[25].content_store 	decision_no[25] 	7245
scalar level3_network.node[25].content_store 	decision_ratio[25] 	0.67976485148515
scalar level3_network.node[26].core_layer 	interests[26] 	14279
scalar level3_network.node[26].core_layer 	repo_load[26] 	13221
scalar level3_network.node[26].core_layer 	data[26] 	0
scalar level3_network.node[26].content_store 	p_hit[26] 	0.074094824567547
scalar level3_network.node[26].content_store 	hits[26] 	1058
scalar level3_network.node[26].content_store 	misses[26] 	13221
scalar level3_network.node[26].content_store 	decision_yes[26] 	13221
scalar level3_network.node[26].content_store 	decision_no[26] 	0
scalar level3_network.node[26].content_store 	decision_ratio[26] 	1
scalar level3_network.node[27].core_layer 	interests[27] 	13665
scalar level3_network.node[27].core_layer 	data[27] 	9022
scalar level3_network.node[27].content_store 	p_hit[27] 	0.33977314306623
scalar level3_network.node[27].content_store 	hits[27] 	4643
scalar level3_network.node[27].content_store 	misses[27] 	9022
scalar level3_network.node[27].content_store 	decision_yes[27] 	1500
scalar level3_network.node[27].content_store 	decision_no[27] 	7522
scalar level3_network.node[27].content_store 	decision_ratio[27] 	0.16626025271558
scalar level3_network.node[28].core_layer 	interests[28] 	25589
scalar level3_network.node[28].core_layer 	repo_load[28] 	13106
scalar level3_network.node[28].core_layer 	data[28] 	9879
scalar level3_network.node[28].content_store 	p_hit[28] 	0.10156707960452
scalar level3_network.node[28].content_store 	hits[28] 	2599
scalar level3_network.node[28].content_store 	misses[28] 	22990
scalar level3_network.node[28].content_store 	decision_yes[28] 	15729
scalar level3_network.node[28].content_store 	decision_no[28] 	7256
scalar level3_network.node[28].content_store 	decision_ratio[28] 	0.68431585816837
scalar level3_network.node[29].core_layer 	interests[29] 	0
scalar level3_network.node[29].core_layer 	data[29] 	0
scalar level3_network.node[29].content_store 	p_hit[29] 	-nan
scalar level3_network.node[29].content_store 	hits[29] 	0
scalar level3_network.node[29].content_store 	misses[29] 	0
scalar level3_network.node[29].content_store 	decision_yes[29] 	0
scalar level3_network.node[29].content_store 	decision_no[29] 	0
scalar level3_network.node[29].content_store 	decision_ratio[29] 	0
scalar level3_network.node[30].core_layer 	interests[30] 	14619
scalar level3_network.node[30].core_layer 	data[30] 	9306
scalar level3_network.node[30].content_store 	p_hit[30] 	0.36343115124153
scalar level3_network.node[30].content_store 	hits[30] 	5313
scalar level3_network.node[30].content_store 	misses[30] 	9306
scalar level3_network.node[30].content_store 	decision_yes[30] 	1480
scalar level3_network.node[30].content_store 	decision_no[30] 	7826
scalar level3_network.node[30].content_store 	decision_ratio[30] 	0.15903718031378
scalar level3_network.node[31].core_layer 	interests[31] 	26379
scalar level3_network.node[31].core_layer 	repo_load[31] 	13887
scalar level3_network.node[31].core_layer 	data[31] 	9886
scalar level3_network.node[31].content_store 	p_hit[31] 	0.098639068956367
scalar level3_network.node[31].content_store 	hits[31] 	2602
scalar level3_network.node[31].content_store 	misses[31] 	23777
scalar level3_network.node[31].content_store 	decision_yes[31] 	16508
scalar level3_network.node[31].content_store 	decision_no[31] 	7265
scalar level3_network.node[31].content_store 	decision_ratio[31] 	0.69440121145838
scalar level3_network.node[32].core_layer 	interests[32] 	13695
scalar level3_network.node[32].core_layer 	data[32] 	9018
scalar level3_network.node[32].content_store 	p_hit[32] 	0.34143848119752
scalar level3_network.node[32].content_store 	hits[32] 	4676
scalar level3_network.node[32].content_store 	misses[32] 	9019
scalar level3_network.node[32].content_store 	decision_yes[32] 	1462
scalar level3_network.node[32].content_store 	decision_no[32] 	7556
scalar level3_network.node[32].content_store 	decision_ratio[32] 	0.16212020403637
scalar level3_network.node[33].core_layer 	interests[33] 	13686
scalar level3_network.node[33].core_layer 	data[33] 	9086
scalar level3_network.node[33].content_store 	p_hit[33] 	0.3358906912173
scalar level3_network.node[33].content_store 	hits[33] 	4597
scalar level3_network.node[33].content_store 	misses[33] 	9089
scalar level3_network.node[33].content_store 	decision_yes[33] 	1335
scalar level3_network.node[33].content_store 	decision_no[33] 	7751
scalar level3_network.node[33].content_store 	decision_ratio[33] 	0.1469293418446
scalar level3_network.node[34].core_layer 	interests[34] 	13657
scalar level3_network.node[34].core_layer 	data[34] 	8930
scalar level3_network.node[34].content_store 	p_hit[34] 	0.34582997730102
scalar level3_network.node[34].content_store 	hits[34] 	4723
scalar level3_network.node[34].content_store 	misses[34] 	8934
scalar level3_network.node[34].content_store 	decision_yes[34] 	1491
scalar level3_network.node[34].content_store 	decision_no[34] 	7439
scalar level3_network.node[34].content_store 	decision_ratio[34] 	0.16696528555431
scalar level3_network.node[35].core_layer 	interests[35] 	0
scalar level3_network.node[35].core_layer 	data[35] 	0
scalar level3_network.node[35].content_store 	p_hit[35] 	-nan
scalar level3_network.node[35].content_store 	hits[35] 	0
scalar level3_network.node[35].content_store 	misses[35] 	0
scalar level3_network.node[35].content_store 	decision_yes[35] 	0
scalar level3_network.node[35].content_store 	decision_no[35] 	0
scalar level3_network.node[35].content_store 	decision_ratio[35] 	0
scalar level3_network.node[36].core_layer 	interests[36] 	13601
scalar level3_network.node[36].core_layer 	data[36] 	8998
scalar level3_network.node[36].content_store 	p_hit[36] 	0.33835747371517
scalar level3_network.node[36].content_store 	hits[36] 	4602
scalar level3_network.node[36].content_store 	misses[36] 	8999
scalar level3_network.node[36].content_store 	decision_yes[36] 	1352
scalar level3_network.node[36].content_store 	decision_no[36] 	7646
scalar level3_network.node[36].content_store 	decision_ratio[36] 	0.1502556123583
scalar level3_network.node[37].core_layer 	interests[37] 	13671
scalar level3_network.node[37].core_layer 	data[37] 	8992
scalar level3_network.node[37].content_store 	p_hit[37] 	0.34225733304074
scalar level3_network.node[37].content_store 	hits[37] 	4679
scalar level3_network.node[37].content_store 	misses[37] 	8992
scalar level3_network.node[37].content_store 	decision_yes[37] 	1310
scalar level3_network.node[37].content_store 	decision_no[37] 	7682
scalar level3_network.node[37].content_store 	decision_ratio[37] 	0.14568505338078
scalar level3_network.node[38].core_layer 	interests[38] 	13709
scalar level3_network.node[38].core_layer 	data[38] 	8983
scalar level3_network.node[38].content_store 	p_hit[38] 	0.34480997884601
scalar level3_network.node[38].content_store 	hits[38] 	4727
scalar level3_network.node[38].content_store 	misses[38] 	8982
scalar level3_network.node[38].content_store 	decision_yes[38] 	1391
scalar level3_network.node[38].content_store 	decision_no[38] 	7592
scalar level3_network.node[38].content_store 	decision_ratio[38] 	0.1548480463097
scalar level3_network.node[39].core_layer 	interests[39] 	25520
scalar level3_network.node[39].core_layer 	repo_load[39] 	13266
scalar level3_network.node[39].core_layer 	data[39] 	9682
scalar level3_network.node[39].content_store 	p_hit[39] 	0.10062695924765
scalar level3_network.node[39].content_store 	hits[39] 	2568
scalar level3_network.node[39].content_store 	misses[39] 	22952
scalar level3_network.node[39].content_store 	decision_yes[39] 	15853
scalar level3_network.node[39].content_store 	decision_no[39] 	7095
scalar level3_network.node[39].content_store 	decision_ratio[39] 	0.69082272964964
scalar level3_network.node[40].core_layer 	interests[40] 	12941
scalar level3_network.node[40].core_layer 	data[40] 	8765
scalar level3_network.node[40].content_store 	p_hit[40] 	0.32269530948149
scalar level3_network.node[40].content_store 	hits[40] 	4176
scalar level3_network.node[40].content_store 	misses[40] 	8765
scalar level3_network.node[40].content_store 	decision_yes[40] 	423
scalar level3_network.node[40].content_store 	decision_no[40] 	8342
scalar level3_network.node[40].content_store 	decision_ratio[40] 	0.048260125499144
scalar level3_network.node[41].core_layer 	interests[41] 	0
scalar level3_network.node[41].core_layer 	data[41] 	0
scalar level3_network.node[41].content_store 	p_hit[41] 	-nan
scalar level3_network.node[41].content_store 	hits[41] 	0
scalar level3_network.node[41].content_store 	misses[41] 	0
scalar level3_network.node[41].content_store 	decision_yes[41] 	0
scalar level3_network.node[41].content_store 	decision_no[41] 	0
scalar level3_network.node[41].content_store 	decision_ratio[41] 	0
scalar level3_network.node[42].core_layer 	interests[42] 	14232
scalar level3_network.node[42].core_layer 	data[42] 	9095
scalar level3_network.node[42].content_store 	p_hit[42] 	0.36080663293985
scalar level3_network.node[42].content_store 	hits[42] 	5135
scalar level3_network.node[42].content_store 	misses[42] 	9097
scalar level3_network.node[42].content_store 	decision_yes[42] 	956
scalar level3_network.node[42].content_store 	decision_no[42] 	8139
scalar level3_network.node[42].content_store 	decision_ratio[42] 	0.10511269928532
scalar level3_network.node[43].core_layer 	interests[43] 	13397
scalar level3_network.node[43].core_layer 	data[43] 	8837
scalar level3_network.node[43].content_store 	p_hit[43] 	0.34007613644846
scalar level3_network.node[43].content_store 	hits[43] 	4556
scalar level3_network.node[43].content_store 	misses[43] 	8841
scalar level3_network.node[43].content_store 	decision_yes[43] 	346
scalar level3_network.node[43].content_store 	decision_no[43] 	8491
scalar level3_network.node[43].content_store 	decision_ratio[43] 	0.039153558900079
scalar level3_network.node[44].core_layer 	interests[44] 	14067
scalar level3_network.node[44].core_layer 	repo_load[44] 	13004
scalar level3_network.node[44].core_layer 	data[44] 	0
scalar level3_network.node[44].content_store 	p_hit[44] 	0.075566929693609
scalar level3_network.node[44].content_store 	hits[44] 	1063
scalar level3_network.node[44].content_store 	misses[44] 	13004
scalar level3_network.node[44].content_store 	decision_yes[44] 	13004
scalar level3_network.node[44].content_store 	decision_no[44] 	0
scalar level3_network.node[44].content_store 	decision_ratio[44] 	1
scalar level3_network.node[45].core_layer 	interests[45] 	26211
scalar level3_network.node[45].core_layer 	repo_load[45] 	13980
scalar level3_network.node[45].core_layer 	data[45] 	9783
scalar level3_network.node[45].content_store 	p_hit[45] 	0.092823623669452
scalar level3_network.node[45].content_store 	hits[45] 	2433
scalar level3_network.node[45].content_store 	misses[45] 	23778
scalar level3_network.node[45].content_store 	decision_yes[45] 	15355
scalar level3_network.node[45].content_store 	decision_no[45] 	8408
scalar level3_network.node[45].content_store 	decision_ratio[45] 	0.64617262130202
scalar level3_network.client[2] 	hdistance[2] 	1.8357130858391
scalar level3_network.client[2] 	downloads[2] 	11906
scalar level3_network.client[2] 	avg_time[2] 	0.039956891174
scalar level3_network.client[3] 	hdistance[3] 	1.8168473728107
scalar level3_network.client[3] 	downloads[3] 	11990
scalar level3_network.client[3] 	avg_time[3] 	0.041036373017
scalar level3_network.client[4] 	hdistance[4] 	2.0254237288136
scalar level3_network.client[4] 	downloads[4] 	12154
scalar level3_network.client[4] 	avg_time[4] 	0.043775988593
scalar level3_network.client[6] 	hdistance[6] 	1.9814830055139
scalar level3_network.client[6] 	downloads[6] 	12151
scalar level3_network.client[6] 	avg_time[6] 	0.029857463876
scalar level3_network.client[7] 	hdistance[7] 	1.586198285191
scalar level3_network.client[7] 	downloads[7] 	12013
scalar level3_network.client[7] 	avg_time[7] 	0.025619422808
scalar level3_network.client[8] 	hdistance[8] 	1.7006223386833
scalar level3_network.client[8] 	downloads[8] 	12212
scalar level3_network.client[8] 	avg_time[8] 	0.029006606359
scalar level3_network.client[9] 	hdistance[9] 	1.8058947368421
scalar level3_network.client[9] 	downloads[9] 	11875
scalar level3_network.client[9] 	avg_time[9] 	0.030740067338
scalar level3_network.client[11] 	hdistance[11] 	1.4888391004896
scalar level3_network.client[11] 	downloads[11] 	12051
scalar level3_network.client[11] 	avg_time[11] 	0.02619967453
scalar level3_network.client[12] 	hdistance[12] 	1.9120474876683
scalar level3_network.client[12] 	downloads[12] 	11961
scalar level3_network.client[12] 	avg_time[12] 	0.038330976801
scalar level3_network.client[14] 	hdistance[14] 	1.9418633540373
scalar level3_network.client[14] 	downloads[14] 	12075
scalar level3_network.client[14] 	avg_time[14] 	0.027135480539
scalar level3_network.client[15] 	hdistance[15] 	1.997391889618
scalar level3_network.client[15] 	downloads[15] 	11886
scalar level3_network.client[15] 	avg_time[15] 	0.042835246006
scalar level3_network.client[17] 	hdistance[17] 	1.4997886550004
scalar level3_network.client[17] 	downloads[17] 	11829
scalar level3_network.client[17] 	avg_time[17] 	0.034648495237
scalar level3_network.client[18] 	hdistance[18] 	1.4371804542788
scalar level3_network.client[18] 	downloads[18] 	11931
scalar level3_network.client[18] 	avg_time[18] 	0.024787929521
scalar level3_network.client[21] 	hdistance[21] 	2.3466075462227
scalar level3_network.client[21] 	downloads[21] 	11953
scalar level3_network.client[21] 	avg_time[21] 	0.038806222713
scalar level3_network.client[22] 	hdistance[22] 	1.9722608624499
scalar level3_network.client[22] 	downloads[22] 	12221
scalar level3_network.client[22] 	avg_time[22] 	0.02952177169
scalar level3_network.client[23] 	hdistance[23] 	2.033969210174
scalar level3_network.client[23] 	downloads[23] 	11952
scalar level3_network.client[23] 	avg_time[23] 	0.026929949929
scalar level3_network.client[25] 	hdistance[25] 	2.0460151399167
scalar level3_network.client[25] 	downloads[25] 	11757
scalar level3_network.client[25] 	avg_time[25] 	0.027199330073
scalar level3_network.client[27] 	hdistance[27] 	1.9835058486914
scalar level3_network.client[27] 	downloads[27] 	11883
scalar level3_network.client[27] 	avg_time[27] 	0.040416372444
scalar level3_network.client[28] 	hdistance[28] 	2.0277317880795
scalar level3_network.client[28] 	downloads[28] 	12080
scalar level3_network.client[28] 	avg_time[28] 	0.035978132366
scalar level3_network.client[30] 	hdistance[30] 	1.9536466774716
scalar level3_network.client[30] 	downloads[30] 	12340
scalar level3_network.client[30] 	avg_time[30] 	0.026752661947
scalar level3_network.client[31] 	hdistance[31] 	2.0264368777713
scalar level3_network.client[31] 	downloads[31] 	11953
scalar level3_network.client[31] 	avg_time[31] 	0.044694262011
scalar level3_network.client[32] 	hdistance[32] 	1.9658882402002
scalar level3_network.client[32] 	downloads[32] 	11990
scalar level3_network.client[32] 	avg_time[32] 	0.036974749781
scalar level3_network.client[33] 	hdistance[33] 	1.9656809662641
scalar level3_network.client[33] 	downloads[33] 	12005
scalar level3_network.client[33] 	avg_time[33] 	0.033805383313
scalar level3_network.client[34] 	hdistance[34] 	1.9613022629764
scalar level3_network.client[34] 	downloads[34] 	11887
scalar level3_network.client[34] 	avg_time[34] 	0.043766969084
scalar level3_network.client[36] 	hdistance[36] 	1.9906707009581
scalar level3_network.client[36] 	downloads[36] 	11898
scalar level3_network.client[36] 	avg_time[36] 	0.027832798196
scalar level3_network.client[37] 	hdistance[37] 	1.9728514323784
scalar level3_network.client[37] 	downloads[37] 	12008
scalar level3_network.client[37] 	avg_time[37] 	0.03257110879
scalar level3_network.client[38] 	hdistance[38] 	1.9791527126591
scalar level3_network.client[38] 	downloads[38] 	11944
scalar level3_network.client[38] 	avg_time[38] 	0.042706436884
scalar level3_network.client[39] 	hdistance[39] 	2.017196103346
scalar level3_network.client[39] 	downloads[39] 	11805
scalar level3_network.client[39] 	avg_time[39] 	0.027676911182
scalar level3_network.client[40] 	hdistance[40] 	2.2693149301464
scalar level3_network.client[40] 	downloads[40] 	11882
scalar level3_network.client[40] 	avg_time[40] 	0.03376472566
scalar level3_network.client[42] 	hdistance[42] 	1.9464816650149
scalar level3_network.client[42] 	downloads[42] 	12108
scalar level3_network.client[42] 	avg_time[42] 	0.041104567952
scalar level3_network.client[43] 	hdistance[43] 	2.366530544212
scalar level3_network.client[43] 	downloads[43] 	11999
scalar level3_network.client[43] 	avg_time[43] 	0.041156069276
scalar level3_network.client[45] 	hdistance[45] 	2.067533557047
scalar level3_network.client[45] 	downloads[45] 	11920
scalar level3_network.client[45] 	avg_time[45] 	0.051234838629
