version 2
run General-39-20160825-18:58:58-3010
attr D lcd
attr F nrr
attr R lru
attr a 0.9
attr configname General
attr datetime 20160825-18:58:58
attr experiment General
attr inifile hw5115/scenario_C/omnetp.ini
attr iterationvars "$net=level3, $rep=5, $a=0.9, $F=nrr, $D=lcd, $R=lru, $window=60, $variance=0.05, $mytime=600"
attr iterationvars2 "$net=level3, $rep=5, $a=0.9, $F=nrr, $D=lcd, $R=lru, $window=60, $variance=0.05, $mytime=600, $repetition=0"
attr measurement "$net=level3, $rep=5, $a=0.9, $F=nrr, $D=lcd, $R=lru, $window=60, $variance=0.05, $mytime=600"
attr mytime 600
attr net level3
attr network networks.${net=level3}_network
attr processid 3010
attr rep 5
attr repetition 0
attr replication #0
attr resultdir results
attr runnumber 39
attr seedset 5
attr variance 0.05
attr window 60

scalar . 	a 	0.9
scalar . 	mytime 	600
scalar . 	rep 	5
scalar . 	variance 	0.05
scalar . 	window 	60
scalar level3_network.content_distribution 	repo-0 	41
scalar level3_network.content_distribution 	repo-1 	5
scalar level3_network.content_distribution 	repo-2 	1
scalar level3_network.content_distribution 	repo-3 	4
scalar level3_network.content_distribution 	repo-4 	31
scalar level3_network.content_distribution 	repo-5 	32
scalar level3_network.content_distribution 	repo-6 	16
scalar level3_network.content_distribution 	repo-7 	30
scalar level3_network.content_distribution 	repo-8 	18
scalar level3_network.content_distribution 	repo-9 	10
scalar level3_network.content_distribution 	repo-10 	34
scalar level3_network.content_distribution 	repo-11 	14
scalar level3_network.content_distribution 	repo-12 	29
scalar level3_network.content_distribution 	repo-13 	13
scalar level3_network.content_distribution 	repo-14 	0
scalar level3_network.content_distribution 	repo-15 	37
scalar level3_network.content_distribution 	client-0 	21
scalar level3_network.content_distribution 	client-1 	9
scalar level3_network.content_distribution 	client-2 	38
scalar level3_network.content_distribution 	client-3 	2
scalar level3_network.content_distribution 	client-4 	30
scalar level3_network.content_distribution 	client-5 	8
scalar level3_network.content_distribution 	client-6 	23
scalar level3_network.content_distribution 	client-7 	32
scalar level3_network.content_distribution 	client-8 	40
scalar level3_network.content_distribution 	client-9 	42
scalar level3_network.content_distribution 	client-10 	45
scalar level3_network.content_distribution 	client-11 	33
scalar level3_network.content_distribution 	client-12 	28
scalar level3_network.content_distribution 	client-13 	3
scalar level3_network.content_distribution 	client-14 	15
scalar level3_network.content_distribution 	client-15 	34
scalar level3_network.content_distribution 	client-16 	31
scalar level3_network.content_distribution 	client-17 	17
scalar level3_network.content_distribution 	client-18 	25
scalar level3_network.content_distribution 	client-19 	12
scalar level3_network.content_distribution 	client-20 	22
scalar level3_network.content_distribution 	client-21 	11
scalar level3_network.content_distribution 	client-22 	6
scalar level3_network.content_distribution 	client-23 	39
scalar level3_network.content_distribution 	client-24 	7
scalar level3_network.content_distribution 	client-25 	18
scalar level3_network.content_distribution 	client-26 	36
scalar level3_network.content_distribution 	client-27 	27
scalar level3_network.content_distribution 	client-28 	43
scalar level3_network.content_distribution 	client-29 	37
scalar level3_network.content_distribution 	client-30 	4
scalar level3_network.content_distribution 	client-31 	14
scalar level3_network.content_distribution 	repo-0_card 	6289
scalar level3_network.content_distribution 	repo-0_price 	0
scalar level3_network.content_distribution 	repo-1_card 	6243
scalar level3_network.content_distribution 	repo-1_price 	0
scalar level3_network.content_distribution 	repo-2_card 	6285
scalar level3_network.content_distribution 	repo-2_price 	0
scalar level3_network.content_distribution 	repo-3_card 	6071
scalar level3_network.content_distribution 	repo-3_price 	0
scalar level3_network.content_distribution 	repo-4_card 	6173
scalar level3_network.content_distribution 	repo-4_price 	0
scalar level3_network.content_distribution 	repo-5_card 	6277
scalar level3_network.content_distribution 	repo-5_price 	0
scalar level3_network.content_distribution 	repo-6_card 	6353
scalar level3_network.content_distribution 	repo-6_price 	0
scalar level3_network.content_distribution 	repo-7_card 	6253
scalar level3_network.content_distribution 	repo-7_price 	0
scalar level3_network.content_distribution 	repo-8_card 	6276
scalar level3_network.content_distribution 	repo-8_price 	0
scalar level3_network.content_distribution 	repo-9_card 	6209
scalar level3_network.content_distribution 	repo-9_price 	0
scalar level3_network.content_distribution 	repo-10_card 	6276
scalar level3_network.content_distribution 	repo-10_price 	0
scalar level3_network.content_distribution 	repo-11_card 	6230
scalar level3_network.content_distribution 	repo-11_price 	0
scalar level3_network.content_distribution 	repo-12_card 	6194
scalar level3_network.content_distribution 	repo-12_price 	0
scalar level3_network.content_distribution 	repo-13_card 	6316
scalar level3_network.content_distribution 	repo-13_price 	0
scalar level3_network.content_distribution 	repo-14_card 	6239
scalar level3_network.content_distribution 	repo-14_price 	0
scalar level3_network.content_distribution 	repo-15_card 	6316
scalar level3_network.content_distribution 	repo-15_price 	0
scalar level3_network.statistics 	stabilization_time 	546.3
scalar level3_network.statistics 	p_hit 	0.22512933560415
scalar level3_network.statistics 	interests 	19528.195652174
scalar level3_network.statistics 	data 	11195.260869565
scalar level3_network.statistics 	hdistance 	1.900318921386
scalar level3_network.statistics 	avg_time 	0.033345583025
scalar level3_network.statistics 	downloads 	383257
scalar level3_network.statistics 	total_cost 	0
scalar level3_network.statistics 	total_replicas 	100000
scalar level3_network.statistics 	inner_hit 	0.44353788710969
scalar level3_network.node[0].core_layer 	interests[0] 	14087
scalar level3_network.node[0].core_layer 	repo_load[0] 	12810
scalar level3_network.node[0].core_layer 	data[0] 	409
scalar level3_network.node[0].core_layer 	repo_int[0] 	213268
scalar level3_network.node[0].content_store 	p_hit[0] 	0.061617093774402
scalar level3_network.node[0].content_store 	hits[0] 	868
scalar level3_network.node[0].content_store 	misses[0] 	13219
scalar level3_network.node[0].content_store 	decision_yes[0] 	12835
scalar level3_network.node[0].content_store 	decision_no[0] 	384
scalar level3_network.node[0].content_store 	decision_ratio[0] 	0.97095090400182
scalar level3_network.node[1].core_layer 	interests[1] 	13793
scalar level3_network.node[1].core_layer 	repo_load[1] 	12876
scalar level3_network.node[1].core_layer 	data[1] 	0
scalar level3_network.node[1].content_store 	p_hit[1] 	0.06648299862249
scalar level3_network.node[1].content_store 	hits[1] 	917
scalar level3_network.node[1].content_store 	misses[1] 	12876
scalar level3_network.node[1].content_store 	decision_yes[1] 	12876
scalar level3_network.node[1].content_store 	decision_no[1] 	0
scalar level3_network.node[1].content_store 	decision_ratio[1] 	1
scalar level3_network.node[2].core_layer 	interests[2] 	52989
scalar level3_network.node[2].core_layer 	data[2] 	47844
scalar level3_network.node[2].content_store 	p_hit[2] 	0.096850289682764
scalar level3_network.node[2].content_store 	hits[2] 	5132
scalar level3_network.node[2].content_store 	misses[2] 	47857
scalar level3_network.node[2].content_store 	decision_yes[2] 	5649
scalar level3_network.node[2].content_store 	decision_no[2] 	42194
scalar level3_network.node[2].content_store 	decision_ratio[2] 	0.11807369939176
scalar level3_network.node[3].core_layer 	interests[3] 	33296
scalar level3_network.node[3].core_layer 	data[3] 	27098
scalar level3_network.node[3].content_store 	p_hit[3] 	0.18590821720327
scalar level3_network.node[3].content_store 	hits[3] 	6190
scalar level3_network.node[3].content_store 	misses[3] 	27106
scalar level3_network.node[3].content_store 	decision_yes[3] 	4199
scalar level3_network.node[3].content_store 	decision_no[3] 	22899
scalar level3_network.node[3].content_store 	decision_ratio[3] 	0.15495608531995
scalar level3_network.node[4].core_layer 	interests[4] 	25720
scalar level3_network.node[4].core_layer 	repo_load[4] 	13341
scalar level3_network.node[4].core_layer 	data[4] 	9832
scalar level3_network.node[4].content_store 	p_hit[4] 	0.098716951788491
scalar level3_network.node[4].content_store 	hits[4] 	2539
scalar level3_network.node[4].content_store 	misses[4] 	23181
scalar level3_network.node[4].content_store 	decision_yes[4] 	15404
scalar level3_network.node[4].content_store 	decision_no[4] 	7769
scalar level3_network.node[4].content_store 	decision_ratio[4] 	0.66473913606352
scalar level3_network.node[5].core_layer 	interests[5] 	18224
scalar level3_network.node[5].core_layer 	repo_load[5] 	13210
scalar level3_network.node[5].core_layer 	data[5] 	3844
scalar level3_network.node[5].content_store 	p_hit[5] 	0.064201053555751
scalar level3_network.node[5].content_store 	hits[5] 	1170
scalar level3_network.node[5].content_store 	misses[5] 	17054
scalar level3_network.node[5].content_store 	decision_yes[5] 	13860
scalar level3_network.node[5].content_store 	decision_no[5] 	3194
scalar level3_network.node[5].content_store 	decision_ratio[5] 	0.8127125601032
scalar level3_network.node[6].core_layer 	interests[6] 	13489
scalar level3_network.node[6].core_layer 	data[6] 	9115
scalar level3_network.node[6].content_store 	p_hit[6] 	0.32426421528653
scalar level3_network.node[6].content_store 	hits[6] 	4374
scalar level3_network.node[6].content_store 	misses[6] 	9115
scalar level3_network.node[6].content_store 	decision_yes[6] 	1223
scalar level3_network.node[6].content_store 	decision_no[6] 	7892
scalar level3_network.node[6].content_store 	decision_ratio[6] 	0.13417443773999
scalar level3_network.node[7].core_layer 	interests[7] 	101269
scalar level3_network.node[7].core_layer 	data[7] 	93028
scalar level3_network.node[7].content_store 	p_hit[7] 	0.080982334179265
scalar level3_network.node[7].content_store 	hits[7] 	8201
scalar level3_network.node[7].content_store 	misses[7] 	93068
scalar level3_network.node[7].content_store 	decision_yes[7] 	16129
scalar level3_network.node[7].content_store 	decision_no[7] 	76891
scalar level3_network.node[7].content_store 	decision_ratio[7] 	0.17339281874866
scalar level3_network.node[8].core_layer 	interests[8] 	31078
scalar level3_network.node[8].core_layer 	data[8] 	20679
scalar level3_network.node[8].content_store 	p_hit[8] 	0.33438445202394
scalar level3_network.node[8].content_store 	hits[8] 	10392
scalar level3_network.node[8].content_store 	misses[8] 	20686
scalar level3_network.node[8].content_store 	decision_yes[8] 	5874
scalar level3_network.node[8].content_store 	decision_no[8] 	14805
scalar level3_network.node[8].content_store 	decision_ratio[8] 	0.28405628898883
scalar level3_network.node[9].core_layer 	interests[9] 	16984
scalar level3_network.node[9].core_layer 	data[9] 	9028
scalar level3_network.node[9].content_store 	p_hit[9] 	0.46849976448422
scalar level3_network.node[9].content_store 	hits[9] 	7957
scalar level3_network.node[9].content_store 	misses[9] 	9027
scalar level3_network.node[9].content_store 	decision_yes[9] 	1926
scalar level3_network.node[9].content_store 	decision_no[9] 	7102
scalar level3_network.node[9].content_store 	decision_ratio[9] 	0.21333628710678
scalar level3_network.node[10].core_layer 	interests[10] 	14118
scalar level3_network.node[10].core_layer 	repo_load[10] 	12997
scalar level3_network.node[10].core_layer 	data[10] 	0
scalar level3_network.node[10].content_store 	p_hit[10] 	0.079402181612126
scalar level3_network.node[10].content_store 	hits[10] 	1121
scalar level3_network.node[10].content_store 	misses[10] 	12997
scalar level3_network.node[10].content_store 	decision_yes[10] 	12997
scalar level3_network.node[10].content_store 	decision_no[10] 	0
scalar level3_network.node[10].content_store 	decision_ratio[10] 	1
scalar level3_network.node[11].core_layer 	interests[11] 	76095
scalar level3_network.node[11].core_layer 	data[11] 	65802
scalar level3_network.node[11].content_store 	p_hit[11] 	0.13455548984822
scalar level3_network.node[11].content_store 	hits[11] 	10239
scalar level3_network.node[11].content_store 	misses[11] 	65856
scalar level3_network.node[11].content_store 	decision_yes[11] 	8861
scalar level3_network.node[11].content_store 	decision_no[11] 	56940
scalar level3_network.node[11].content_store 	decision_ratio[11] 	0.13466360693606
scalar level3_network.node[12].core_layer 	interests[12] 	13892
scalar level3_network.node[12].core_layer 	data[12] 	9177
scalar level3_network.node[12].content_store 	p_hit[12] 	0.33940397350993
scalar level3_network.node[12].content_store 	hits[12] 	4715
scalar level3_network.node[12].content_store 	misses[12] 	9177
scalar level3_network.node[12].content_store 	decision_yes[12] 	1596
scalar level3_network.node[12].content_store 	decision_no[12] 	7581
scalar level3_network.node[12].content_store 	decision_ratio[12] 	0.17391304347826
scalar level3_network.node[13].core_layer 	interests[13] 	13436
scalar level3_network.node[13].core_layer 	repo_load[13] 	12513
scalar level3_network.node[13].core_layer 	data[13] 	0
scalar level3_network.node[13].content_store 	p_hit[13] 	0.068696040488241
scalar level3_network.node[13].content_store 	hits[13] 	923
scalar level3_network.node[13].content_store 	misses[13] 	12513
scalar level3_network.node[13].content_store 	decision_yes[13] 	12513
scalar level3_network.node[13].content_store 	decision_no[13] 	0
scalar level3_network.node[13].content_store 	decision_ratio[13] 	1
scalar level3_network.node[14].core_layer 	interests[14] 	26486
scalar level3_network.node[14].core_layer 	repo_load[14] 	13958
scalar level3_network.node[14].core_layer 	data[14] 	9891
scalar level3_network.node[14].content_store 	p_hit[14] 	0.099373253794457
scalar level3_network.node[14].content_store 	hits[14] 	2632
scalar level3_network.node[14].content_store 	misses[14] 	23854
scalar level3_network.node[14].content_store 	decision_yes[14] 	16682
scalar level3_network.node[14].content_store 	decision_no[14] 	7167
scalar level3_network.node[14].content_store 	decision_ratio[14] 	0.69948425510504
scalar level3_network.node[15].core_layer 	interests[15] 	13801
scalar level3_network.node[15].core_layer 	data[15] 	9089
scalar level3_network.node[15].content_store 	p_hit[15] 	0.34127961741903
scalar level3_network.node[15].content_store 	hits[15] 	4710
scalar level3_network.node[15].content_store 	misses[15] 	9091
scalar level3_network.node[15].content_store 	decision_yes[15] 	1488
scalar level3_network.node[15].content_store 	decision_no[15] 	7601
scalar level3_network.node[15].content_store 	decision_ratio[15] 	0.1637143800198
scalar level3_network.node[16].core_layer 	interests[16] 	14178
scalar level3_network.node[16].core_layer 	repo_load[16] 	13139
scalar level3_network.node[16].core_layer 	data[16] 	0
scalar level3_network.node[16].content_store 	p_hit[16] 	0.073282550430244
scalar level3_network.node[16].content_store 	hits[16] 	1039
scalar level3_network.node[16].content_store 	misses[16] 	13139
scalar level3_network.node[16].content_store 	decision_yes[16] 	13139
scalar level3_network.node[16].content_store 	decision_no[16] 	0
scalar level3_network.node[16].content_store 	decision_ratio[16] 	1
scalar level3_network.node[17].core_layer 	interests[17] 	21453
scalar level3_network.node[17].core_layer 	data[17] 	9037
scalar level3_network.node[17].content_store 	p_hit[17] 	0.57875355428145
scalar level3_network.node[17].content_store 	hits[17] 	12416
scalar level3_network.node[17].content_store 	misses[17] 	9037
scalar level3_network.node[17].content_store 	decision_yes[17] 	2127
scalar level3_network.node[17].content_store 	decision_no[17] 	6910
scalar level3_network.node[17].content_store 	decision_ratio[17] 	0.23536571871196
scalar level3_network.node[18].core_layer 	interests[18] 	35180
scalar level3_network.node[18].core_layer 	repo_load[18] 	13543
scalar level3_network.node[18].core_layer 	data[18] 	16047
scalar level3_network.node[18].content_store 	p_hit[18] 	0.15875497441728
scalar level3_network.node[18].content_store 	hits[18] 	5585
scalar level3_network.node[18].content_store 	misses[18] 	29595
scalar level3_network.node[18].content_store 	decision_yes[18] 	18810
scalar level3_network.node[18].content_store 	decision_no[18] 	10780
scalar level3_network.node[18].content_store 	decision_ratio[18] 	0.63568773234201
scalar level3_network.node[19].core_layer 	interests[19] 	0
scalar level3_network.node[19].core_layer 	data[19] 	0
scalar level3_network.node[19].content_store 	p_hit[19] 	-nan
scalar level3_network.node[19].content_store 	hits[19] 	0
scalar level3_network.node[19].content_store 	misses[19] 	0
scalar level3_network.node[19].content_store 	decision_yes[19] 	0
scalar level3_network.node[19].content_store 	decision_no[19] 	0
scalar level3_network.node[19].content_store 	decision_ratio[19] 	0
scalar level3_network.node[20].core_layer 	interests[20] 	0
scalar level3_network.node[20].core_layer 	data[20] 	0
scalar level3_network.node[20].content_store 	p_hit[20] 	-nan
scalar level3_network.node[20].content_store 	hits[20] 	0
scalar level3_network.node[20].content_store 	misses[20] 	0
scalar level3_network.node[20].content_store 	decision_yes[20] 	0
scalar level3_network.node[20].content_store 	decision_no[20] 	0
scalar level3_network.node[20].content_store 	decision_ratio[20] 	0
scalar level3_network.node[21].core_layer 	interests[21] 	13029
scalar level3_network.node[21].core_layer 	data[21] 	8872
scalar level3_network.node[21].content_store 	p_hit[21] 	0.3189039834216
scalar level3_network.node[21].content_store 	hits[21] 	4155
scalar level3_network.node[21].content_store 	misses[21] 	8874
scalar level3_network.node[21].content_store 	decision_yes[21] 	541
scalar level3_network.node[21].content_store 	decision_no[21] 	8331
scalar level3_network.node[21].content_store 	decision_ratio[21] 	0.060978358881876
scalar level3_network.node[22].core_layer 	interests[22] 	13715
scalar level3_network.node[22].core_layer 	data[22] 	9029
scalar level3_network.node[22].content_store 	p_hit[22] 	0.34159679183376
scalar level3_network.node[22].content_store 	hits[22] 	4685
scalar level3_network.node[22].content_store 	misses[22] 	9030
scalar level3_network.node[22].content_store 	decision_yes[22] 	1615
scalar level3_network.node[22].content_store 	decision_no[22] 	7414
scalar level3_network.node[22].content_store 	decision_ratio[22] 	0.17886809170451
scalar level3_network.node[23].core_layer 	interests[23] 	13580
scalar level3_network.node[23].core_layer 	data[23] 	9001
scalar level3_network.node[23].content_store 	p_hit[23] 	0.33726067746686
scalar level3_network.node[23].content_store 	hits[23] 	4580
scalar level3_network.node[23].content_store 	misses[23] 	9000
scalar level3_network.node[23].content_store 	decision_yes[23] 	1487
scalar level3_network.node[23].content_store 	decision_no[23] 	7514
scalar level3_network.node[23].content_store 	decision_ratio[23] 	0.16520386623708
scalar level3_network.node[24].core_layer 	interests[24] 	0
scalar level3_network.node[24].core_layer 	data[24] 	0
scalar level3_network.node[24].content_store 	p_hit[24] 	-nan
scalar level3_network.node[24].content_store 	hits[24] 	0
scalar level3_network.node[24].content_store 	misses[24] 	0
scalar level3_network.node[24].content_store 	decision_yes[24] 	0
scalar level3_network.node[24].content_store 	decision_no[24] 	0
scalar level3_network.node[24].content_store 	decision_ratio[24] 	0
scalar level3_network.node[25].core_layer 	interests[25] 	13614
scalar level3_network.node[25].core_layer 	data[25] 	9065
scalar level3_network.node[25].content_store 	p_hit[25] 	0.33421477890407
scalar level3_network.node[25].content_store 	hits[25] 	4550
scalar level3_network.node[25].content_store 	misses[25] 	9064
scalar level3_network.node[25].content_store 	decision_yes[25] 	1465
scalar level3_network.node[25].content_store 	decision_no[25] 	7600
scalar level3_network.node[25].content_store 	decision_ratio[25] 	0.16161059018202
scalar level3_network.node[26].core_layer 	interests[26] 	0
scalar level3_network.node[26].core_layer 	data[26] 	0
scalar level3_network.node[26].content_store 	p_hit[26] 	-nan
scalar level3_network.node[26].content_store 	hits[26] 	0
scalar level3_network.node[26].content_store 	misses[26] 	0
scalar level3_network.node[26].content_store 	decision_yes[26] 	0
scalar level3_network.node[26].content_store 	decision_no[26] 	0
scalar level3_network.node[26].content_store 	decision_ratio[26] 	0
scalar level3_network.node[27].core_layer 	interests[27] 	13703
scalar level3_network.node[27].core_layer 	data[27] 	8992
scalar level3_network.node[27].content_store 	p_hit[27] 	0.34372035320733
scalar level3_network.node[27].content_store 	hits[27] 	4710
scalar level3_network.node[27].content_store 	misses[27] 	8993
scalar level3_network.node[27].content_store 	decision_yes[27] 	1512
scalar level3_network.node[27].content_store 	decision_no[27] 	7480
scalar level3_network.node[27].content_store 	decision_ratio[27] 	0.16814946619217
scalar level3_network.node[28].core_layer 	interests[28] 	13553
scalar level3_network.node[28].core_layer 	data[28] 	8981
scalar level3_network.node[28].content_store 	p_hit[28] 	0.3372685014388
scalar level3_network.node[28].content_store 	hits[28] 	4571
scalar level3_network.node[28].content_store 	misses[28] 	8982
scalar level3_network.node[28].content_store 	decision_yes[28] 	1623
scalar level3_network.node[28].content_store 	decision_no[28] 	7358
scalar level3_network.node[28].content_store 	decision_ratio[28] 	0.18071484244516
scalar level3_network.node[29].core_layer 	interests[29] 	14120
scalar level3_network.node[29].core_layer 	repo_load[29] 	13085
scalar level3_network.node[29].core_layer 	data[29] 	0
scalar level3_network.node[29].content_store 	p_hit[29] 	0.073300283286119
scalar level3_network.node[29].content_store 	hits[29] 	1035
scalar level3_network.node[29].content_store 	misses[29] 	13085
scalar level3_network.node[29].content_store 	decision_yes[29] 	13085
scalar level3_network.node[29].content_store 	decision_no[29] 	0
scalar level3_network.node[29].content_store 	decision_ratio[29] 	1
scalar level3_network.node[30].core_layer 	interests[30] 	25457
scalar level3_network.node[30].core_layer 	repo_load[30] 	12794
scalar level3_network.node[30].core_layer 	data[30] 	10139
scalar level3_network.node[30].content_store 	p_hit[30] 	0.099029736418274
scalar level3_network.node[30].content_store 	hits[30] 	2521
scalar level3_network.node[30].content_store 	misses[30] 	22936
scalar level3_network.node[30].content_store 	decision_yes[30] 	15753
scalar level3_network.node[30].content_store 	decision_no[30] 	7180
scalar level3_network.node[30].content_store 	decision_ratio[30] 	0.68691405398334
scalar level3_network.node[31].core_layer 	interests[31] 	26053
scalar level3_network.node[31].core_layer 	repo_load[31] 	13548
scalar level3_network.node[31].core_layer 	data[31] 	9884
scalar level3_network.node[31].content_store 	p_hit[31] 	0.1004490845584
scalar level3_network.node[31].content_store 	hits[31] 	2617
scalar level3_network.node[31].content_store 	misses[31] 	23436
scalar level3_network.node[31].content_store 	decision_yes[31] 	16075
scalar level3_network.node[31].content_store 	decision_no[31] 	7357
scalar level3_network.node[31].content_store 	decision_ratio[31] 	0.68602765448959
scalar level3_network.node[32].core_layer 	interests[32] 	26618
scalar level3_network.node[32].core_layer 	repo_load[32] 	14189
scalar level3_network.node[32].core_layer 	data[32] 	9814
scalar level3_network.node[32].content_store 	p_hit[32] 	0.098091517018559
scalar level3_network.node[32].content_store 	hits[32] 	2611
scalar level3_network.node[32].content_store 	misses[32] 	24007
scalar level3_network.node[32].content_store 	decision_yes[32] 	16883
scalar level3_network.node[32].content_store 	decision_no[32] 	7120
scalar level3_network.node[32].content_store 	decision_ratio[32] 	0.70337041203183
scalar level3_network.node[33].core_layer 	interests[33] 	13270
scalar level3_network.node[33].core_layer 	data[33] 	8836
scalar level3_network.node[33].content_store 	p_hit[33] 	0.33421250941974
scalar level3_network.node[33].content_store 	hits[33] 	4435
scalar level3_network.node[33].content_store 	misses[33] 	8835
scalar level3_network.node[33].content_store 	decision_yes[33] 	1376
scalar level3_network.node[33].content_store 	decision_no[33] 	7460
scalar level3_network.node[33].content_store 	decision_ratio[33] 	0.15572657311
scalar level3_network.node[34].core_layer 	interests[34] 	26328
scalar level3_network.node[34].core_layer 	repo_load[34] 	13931
scalar level3_network.node[34].core_layer 	data[34] 	9848
scalar level3_network.node[34].content_store 	p_hit[34] 	0.096551200243087
scalar level3_network.node[34].content_store 	hits[34] 	2542
scalar level3_network.node[34].content_store 	misses[34] 	23786
scalar level3_network.node[34].content_store 	decision_yes[34] 	16711
scalar level3_network.node[34].content_store 	decision_no[34] 	7068
scalar level3_network.node[34].content_store 	decision_ratio[34] 	0.70276294209176
scalar level3_network.node[35].core_layer 	interests[35] 	0
scalar level3_network.node[35].core_layer 	data[35] 	0
scalar level3_network.node[35].content_store 	p_hit[35] 	-nan
scalar level3_network.node[35].content_store 	hits[35] 	0
scalar level3_network.node[35].content_store 	misses[35] 	0
scalar level3_network.node[35].content_store 	decision_yes[35] 	0
scalar level3_network.node[35].content_store 	decision_no[35] 	0
scalar level3_network.node[35].content_store 	decision_ratio[35] 	0
scalar level3_network.node[36].core_layer 	interests[36] 	13460
scalar level3_network.node[36].core_layer 	data[36] 	8928
scalar level3_network.node[36].content_store 	p_hit[36] 	0.33670133729569
scalar level3_network.node[36].content_store 	hits[36] 	4532
scalar level3_network.node[36].content_store 	misses[36] 	8928
scalar level3_network.node[36].content_store 	decision_yes[36] 	1508
scalar level3_network.node[36].content_store 	decision_no[36] 	7420
scalar level3_network.node[36].content_store 	decision_ratio[36] 	0.16890681003584
scalar level3_network.node[37].core_layer 	interests[37] 	26071
scalar level3_network.node[37].core_layer 	repo_load[37] 	13821
scalar level3_network.node[37].core_layer 	data[37] 	9721
scalar level3_network.node[37].content_store 	p_hit[37] 	0.096812550343293
scalar level3_network.node[37].content_store 	hits[37] 	2524
scalar level3_network.node[37].content_store 	misses[37] 	23547
scalar level3_network.node[37].content_store 	decision_yes[37] 	16378
scalar level3_network.node[37].content_store 	decision_no[37] 	7164
scalar level3_network.node[37].content_store 	decision_ratio[37] 	0.69569280434967
scalar level3_network.node[38].core_layer 	interests[38] 	13767
scalar level3_network.node[38].core_layer 	data[38] 	9145
scalar level3_network.node[38].content_store 	p_hit[38] 	0.3357303697247
scalar level3_network.node[38].content_store 	hits[38] 	4622
scalar level3_network.node[38].content_store 	misses[38] 	9145
scalar level3_network.node[38].content_store 	decision_yes[38] 	1628
scalar level3_network.node[38].content_store 	decision_no[38] 	7517
scalar level3_network.node[38].content_store 	decision_ratio[38] 	0.17802077638054
scalar level3_network.node[39].core_layer 	interests[39] 	14133
scalar level3_network.node[39].core_layer 	data[39] 	9074
scalar level3_network.node[39].content_store 	p_hit[39] 	0.35781504280761
scalar level3_network.node[39].content_store 	hits[39] 	5057
scalar level3_network.node[39].content_store 	misses[39] 	9076
scalar level3_network.node[39].content_store 	decision_yes[39] 	1436
scalar level3_network.node[39].content_store 	decision_no[39] 	7638
scalar level3_network.node[39].content_store 	decision_ratio[39] 	0.15825435309676
scalar level3_network.node[40].core_layer 	interests[40] 	13294
scalar level3_network.node[40].core_layer 	data[40] 	9013
scalar level3_network.node[40].content_store 	p_hit[40] 	0.32194975176771
scalar level3_network.node[40].content_store 	hits[40] 	4280
scalar level3_network.node[40].content_store 	misses[40] 	9014
scalar level3_network.node[40].content_store 	decision_yes[40] 	582
scalar level3_network.node[40].content_store 	decision_no[40] 	8431
scalar level3_network.node[40].content_store 	decision_ratio[40] 	0.064573393986464
scalar level3_network.node[41].core_layer 	interests[41] 	14519
scalar level3_network.node[41].core_layer 	repo_load[41] 	13513
scalar level3_network.node[41].core_layer 	data[41] 	0
scalar level3_network.node[41].content_store 	p_hit[41] 	0.069288518493009
scalar level3_network.node[41].content_store 	hits[41] 	1006
scalar level3_network.node[41].content_store 	misses[41] 	13513
scalar level3_network.node[41].content_store 	decision_yes[41] 	13513
scalar level3_network.node[41].content_store 	decision_no[41] 	0
scalar level3_network.node[41].content_store 	decision_ratio[41] 	1
scalar level3_network.node[42].core_layer 	interests[42] 	13847
scalar level3_network.node[42].core_layer 	data[42] 	8992
scalar level3_network.node[42].content_store 	p_hit[42] 	0.35032859103055
scalar level3_network.node[42].content_store 	hits[42] 	4851
scalar level3_network.node[42].content_store 	misses[42] 	8996
scalar level3_network.node[42].content_store 	decision_yes[42] 	916
scalar level3_network.node[42].content_store 	decision_no[42] 	8076
scalar level3_network.node[42].content_store 	decision_ratio[42] 	0.10186832740214
scalar level3_network.node[43].core_layer 	interests[43] 	13154
scalar level3_network.node[43].core_layer 	data[43] 	8934
scalar level3_network.node[43].content_store 	p_hit[43] 	0.32051087121788
scalar level3_network.node[43].content_store 	hits[43] 	4216
scalar level3_network.node[43].content_store 	misses[43] 	8938
scalar level3_network.node[43].content_store 	decision_yes[43] 	519
scalar level3_network.node[43].content_store 	decision_no[43] 	8415
scalar level3_network.node[43].content_store 	decision_ratio[43] 	0.058092679650772
scalar level3_network.node[44].core_layer 	interests[44] 	0
scalar level3_network.node[44].core_layer 	data[44] 	0
scalar level3_network.node[44].content_store 	p_hit[44] 	-nan
scalar level3_network.node[44].content_store 	hits[44] 	0
scalar level3_network.node[44].content_store 	misses[44] 	0
scalar level3_network.node[44].content_store 	decision_yes[44] 	0
scalar level3_network.node[44].content_store 	decision_no[44] 	0
scalar level3_network.node[44].content_store 	decision_ratio[44] 	0
scalar level3_network.node[45].core_layer 	interests[45] 	13444
scalar level3_network.node[45].core_layer 	data[45] 	8794
scalar level3_network.node[45].content_store 	p_hit[45] 	0.34602796786671
scalar level3_network.node[45].content_store 	hits[45] 	4652
scalar level3_network.node[45].content_store 	misses[45] 	8792
scalar level3_network.node[45].content_store 	decision_yes[45] 	467
scalar level3_network.node[45].content_store 	decision_no[45] 	8327
scalar level3_network.node[45].content_store 	decision_ratio[45] 	0.053104389356379
scalar level3_network.client[2] 	hdistance[2] 	1.829693961952
scalar level3_network.client[2] 	downloads[2] 	12090
scalar level3_network.client[2] 	avg_time[2] 	0.045352183758
scalar level3_network.client[3] 	hdistance[3] 	1.7842889618591
scalar level3_network.client[3] 	downloads[3] 	11877
scalar level3_network.client[3] 	avg_time[3] 	0.044276178747
scalar level3_network.client[4] 	hdistance[4] 	1.9806722689076
scalar level3_network.client[4] 	downloads[4] 	11900
scalar level3_network.client[4] 	avg_time[4] 	0.04747398724
scalar level3_network.client[6] 	hdistance[6] 	1.9295809571039
scalar level3_network.client[6] 	downloads[6] 	12099
scalar level3_network.client[6] 	avg_time[6] 	0.026617841255
scalar level3_network.client[7] 	hdistance[7] 	1.5570647672685
scalar level3_network.client[7] 	downloads[7] 	12074
scalar level3_network.client[7] 	avg_time[7] 	0.023535911341
scalar level3_network.client[8] 	hdistance[8] 	1.6122582759751
scalar level3_network.client[8] 	downloads[8] 	12204
scalar level3_network.client[8] 	avg_time[8] 	0.024965455968
scalar level3_network.client[9] 	hdistance[9] 	1.7027684563758
scalar level3_network.client[9] 	downloads[9] 	11920
scalar level3_network.client[9] 	avg_time[9] 	0.027005607657
scalar level3_network.client[11] 	hdistance[11] 	1.4860453315291
scalar level3_network.client[11] 	downloads[11] 	11824
scalar level3_network.client[11] 	avg_time[11] 	0.024671113432
scalar level3_network.client[12] 	hdistance[12] 	1.9030158206987
scalar level3_network.client[12] 	downloads[12] 	12136
scalar level3_network.client[12] 	avg_time[12] 	0.034371060662
scalar level3_network.client[14] 	hdistance[14] 	1.967784679089
scalar level3_network.client[14] 	downloads[14] 	12075
scalar level3_network.client[14] 	avg_time[14] 	0.026529832997
scalar level3_network.client[15] 	hdistance[15] 	1.9286846275753
scalar level3_network.client[15] 	downloads[15] 	11989
scalar level3_network.client[15] 	avg_time[15] 	0.037448977401
scalar level3_network.client[17] 	hdistance[17] 	1.4662935427283
scalar level3_network.client[17] 	downloads[17] 	11971
scalar level3_network.client[17] 	avg_time[17] 	0.029636385109
scalar level3_network.client[18] 	hdistance[18] 	1.501346348031
scalar level3_network.client[18] 	downloads[18] 	11884
scalar level3_network.client[18] 	avg_time[18] 	0.024970041401
scalar level3_network.client[21] 	hdistance[21] 	2.4200996677741
scalar level3_network.client[21] 	downloads[21] 	12040
scalar level3_network.client[21] 	avg_time[21] 	0.045020593052
scalar level3_network.client[22] 	hdistance[22] 	1.9049133673726
scalar level3_network.client[22] 	downloads[22] 	11947
scalar level3_network.client[22] 	avg_time[22] 	0.027747539143
scalar level3_network.client[23] 	hdistance[23] 	1.8883988015979
scalar level3_network.client[23] 	downloads[23] 	12016
scalar level3_network.client[23] 	avg_time[23] 	0.023269747065
scalar level3_network.client[25] 	hdistance[25] 	1.9355761143818
scalar level3_network.client[25] 	downloads[25] 	11890
scalar level3_network.client[25] 	avg_time[25] 	0.023883267829
scalar level3_network.client[27] 	hdistance[27] 	1.9401122372058
scalar level3_network.client[27] 	downloads[27] 	11939
scalar level3_network.client[27] 	avg_time[27] 	0.034854333724
scalar level3_network.client[28] 	hdistance[28] 	1.9207291225095
scalar level3_network.client[28] 	downloads[28] 	11795
scalar level3_network.client[28] 	avg_time[28] 	0.032474702673
scalar level3_network.client[30] 	hdistance[30] 	1.9821985233798
scalar level3_network.client[30] 	downloads[30] 	12190
scalar level3_network.client[30] 	avg_time[30] 	0.026640687118
scalar level3_network.client[31] 	hdistance[31] 	2.0062014221928
scalar level3_network.client[31] 	downloads[31] 	12094
scalar level3_network.client[31] 	avg_time[31] 	0.038682422574
scalar level3_network.client[32] 	hdistance[32] 	1.9963118189438
scalar level3_network.client[32] 	downloads[32] 	11930
scalar level3_network.client[32] 	avg_time[32] 	0.032844089451
scalar level3_network.client[33] 	hdistance[33] 	1.9519239009341
scalar level3_network.client[33] 	downloads[33] 	11669
scalar level3_network.client[33] 	avg_time[33] 	0.031450196105
scalar level3_network.client[34] 	hdistance[34] 	2.0262273032952
scalar level3_network.client[34] 	downloads[34] 	11896
scalar level3_network.client[34] 	avg_time[34] 	0.040578578278
scalar level3_network.client[36] 	hdistance[36] 	1.8986850977748
scalar level3_network.client[36] 	downloads[36] 	11864
scalar level3_network.client[36] 	avg_time[36] 	0.02573684504
scalar level3_network.client[37] 	hdistance[37] 	1.9700851099688
scalar level3_network.client[37] 	downloads[37] 	11867
scalar level3_network.client[37] 	avg_time[37] 	0.031866612832
scalar level3_network.client[38] 	hdistance[38] 	1.9536164177859
scalar level3_network.client[38] 	downloads[38] 	11987
scalar level3_network.client[38] 	avg_time[38] 	0.037272372245
scalar level3_network.client[39] 	hdistance[39] 	1.9174777472756
scalar level3_network.client[39] 	downloads[39] 	12021
scalar level3_network.client[39] 	avg_time[39] 	0.025365347959
scalar level3_network.client[40] 	hdistance[40] 	2.1205338638813
scalar level3_network.client[40] 	downloads[40] 	12063
scalar level3_network.client[40] 	avg_time[40] 	0.029331027941
scalar level3_network.client[42] 	hdistance[42] 	1.9486364396855
scalar level3_network.client[42] 	downloads[42] 	11954
scalar level3_network.client[42] 	avg_time[42] 	0.045872033043
scalar level3_network.client[43] 	hdistance[43] 	2.4293957629214
scalar level3_network.client[43] 	downloads[43] 	12131
scalar level3_network.client[43] 	avg_time[43] 	0.047920505615
scalar level3_network.client[45] 	hdistance[45] 	1.9495847663787
scalar level3_network.client[45] 	downloads[45] 	11921
scalar level3_network.client[45] 	avg_time[45] 	0.049393178168
