version 2
run General-48-20160825-19:30:14-3010
attr D lcd
attr F nrr
attr R lru
attr a 0.9
attr configname General
attr datetime 20160825-19:30:14
attr experiment General
attr inifile hw5115/scenario_C/omnetp.ini
attr iterationvars "$net=level3, $rep=6, $a=0.9, $F=nrr, $D=lcd, $R=lru, $window=60, $variance=0.05, $mytime=600"
attr iterationvars2 "$net=level3, $rep=6, $a=0.9, $F=nrr, $D=lcd, $R=lru, $window=60, $variance=0.05, $mytime=600, $repetition=0"
attr measurement "$net=level3, $rep=6, $a=0.9, $F=nrr, $D=lcd, $R=lru, $window=60, $variance=0.05, $mytime=600"
attr mytime 600
attr net level3
attr network networks.${net=level3}_network
attr processid 3010
attr rep 6
attr repetition 0
attr replication #0
attr resultdir results
attr runnumber 48
attr seedset 6
attr variance 0.05
attr window 60

scalar . 	a 	0.9
scalar . 	mytime 	600
scalar . 	rep 	6
scalar . 	variance 	0.05
scalar . 	window 	60
scalar level3_network.content_distribution 	repo-0 	29
scalar level3_network.content_distribution 	repo-1 	34
scalar level3_network.content_distribution 	repo-2 	40
scalar level3_network.content_distribution 	repo-3 	19
scalar level3_network.content_distribution 	repo-4 	10
scalar level3_network.content_distribution 	repo-5 	31
scalar level3_network.content_distribution 	repo-6 	2
scalar level3_network.content_distribution 	repo-7 	22
scalar level3_network.content_distribution 	repo-8 	5
scalar level3_network.content_distribution 	repo-9 	33
scalar level3_network.content_distribution 	repo-10 	44
scalar level3_network.content_distribution 	repo-11 	39
scalar level3_network.content_distribution 	repo-12 	15
scalar level3_network.content_distribution 	repo-13 	16
scalar level3_network.content_distribution 	repo-14 	7
scalar level3_network.content_distribution 	repo-15 	9
scalar level3_network.content_distribution 	client-0 	21
scalar level3_network.content_distribution 	client-1 	9
scalar level3_network.content_distribution 	client-2 	38
scalar level3_network.content_distribution 	client-3 	2
scalar level3_network.content_distribution 	client-4 	30
scalar level3_network.content_distribution 	client-5 	8
scalar level3_network.content_distribution 	client-6 	23
scalar level3_network.content_distribution 	client-7 	32
scalar level3_network.content_distribution 	client-8 	40
scalar level3_network.content_distribution 	client-9 	42
scalar level3_network.content_distribution 	client-10 	45
scalar level3_network.content_distribution 	client-11 	33
scalar level3_network.content_distribution 	client-12 	28
scalar level3_network.content_distribution 	client-13 	3
scalar level3_network.content_distribution 	client-14 	15
scalar level3_network.content_distribution 	client-15 	34
scalar level3_network.content_distribution 	client-16 	31
scalar level3_network.content_distribution 	client-17 	17
scalar level3_network.content_distribution 	client-18 	25
scalar level3_network.content_distribution 	client-19 	12
scalar level3_network.content_distribution 	client-20 	22
scalar level3_network.content_distribution 	client-21 	11
scalar level3_network.content_distribution 	client-22 	6
scalar level3_network.content_distribution 	client-23 	39
scalar level3_network.content_distribution 	client-24 	7
scalar level3_network.content_distribution 	client-25 	18
scalar level3_network.content_distribution 	client-26 	36
scalar level3_network.content_distribution 	client-27 	27
scalar level3_network.content_distribution 	client-28 	43
scalar level3_network.content_distribution 	client-29 	37
scalar level3_network.content_distribution 	client-30 	4
scalar level3_network.content_distribution 	client-31 	14
scalar level3_network.content_distribution 	repo-0_card 	6360
scalar level3_network.content_distribution 	repo-0_price 	0
scalar level3_network.content_distribution 	repo-1_card 	6227
scalar level3_network.content_distribution 	repo-1_price 	0
scalar level3_network.content_distribution 	repo-2_card 	6204
scalar level3_network.content_distribution 	repo-2_price 	0
scalar level3_network.content_distribution 	repo-3_card 	6279
scalar level3_network.content_distribution 	repo-3_price 	0
scalar level3_network.content_distribution 	repo-4_card 	6336
scalar level3_network.content_distribution 	repo-4_price 	0
scalar level3_network.content_distribution 	repo-5_card 	6119
scalar level3_network.content_distribution 	repo-5_price 	0
scalar level3_network.content_distribution 	repo-6_card 	6217
scalar level3_network.content_distribution 	repo-6_price 	0
scalar level3_network.content_distribution 	repo-7_card 	6216
scalar level3_network.content_distribution 	repo-7_price 	0
scalar level3_network.content_distribution 	repo-8_card 	6343
scalar level3_network.content_distribution 	repo-8_price 	0
scalar level3_network.content_distribution 	repo-9_card 	6167
scalar level3_network.content_distribution 	repo-9_price 	0
scalar level3_network.content_distribution 	repo-10_card 	6308
scalar level3_network.content_distribution 	repo-10_price 	0
scalar level3_network.content_distribution 	repo-11_card 	6206
scalar level3_network.content_distribution 	repo-11_price 	0
scalar level3_network.content_distribution 	repo-12_card 	6250
scalar level3_network.content_distribution 	repo-12_price 	0
scalar level3_network.content_distribution 	repo-13_card 	6264
scalar level3_network.content_distribution 	repo-13_price 	0
scalar level3_network.content_distribution 	repo-14_card 	6241
scalar level3_network.content_distribution 	repo-14_price 	0
scalar level3_network.content_distribution 	repo-15_card 	6263
scalar level3_network.content_distribution 	repo-15_price 	0
scalar level3_network.statistics 	stabilization_time 	599.1
scalar level3_network.statistics 	p_hit 	0.23129183682994
scalar level3_network.statistics 	interests 	19028.413043478
scalar level3_network.statistics 	data 	10660.239130435
scalar level3_network.statistics 	hdistance 	1.8380699718342
scalar level3_network.statistics 	avg_time 	0.031539812652
scalar level3_network.statistics 	downloads 	384867
scalar level3_network.statistics 	total_cost 	0
scalar level3_network.statistics 	total_replicas 	100000
scalar level3_network.statistics 	inner_hit 	0.43663395406725
scalar level3_network.node[0].core_layer 	interests[0] 	0
scalar level3_network.node[0].core_layer 	data[0] 	0
scalar level3_network.node[0].core_layer 	repo_int[0] 	216821
scalar level3_network.node[0].content_store 	p_hit[0] 	-nan
scalar level3_network.node[0].content_store 	hits[0] 	0
scalar level3_network.node[0].content_store 	misses[0] 	0
scalar level3_network.node[0].content_store 	decision_yes[0] 	0
scalar level3_network.node[0].content_store 	decision_no[0] 	0
scalar level3_network.node[0].content_store 	decision_ratio[0] 	0
scalar level3_network.node[1].core_layer 	interests[1] 	0
scalar level3_network.node[1].core_layer 	data[1] 	0
scalar level3_network.node[1].content_store 	p_hit[1] 	-nan
scalar level3_network.node[1].content_store 	hits[1] 	0
scalar level3_network.node[1].content_store 	misses[1] 	0
scalar level3_network.node[1].content_store 	decision_yes[1] 	0
scalar level3_network.node[1].content_store 	decision_no[1] 	0
scalar level3_network.node[1].content_store 	decision_ratio[1] 	0
scalar level3_network.node[2].core_layer 	interests[2] 	29933
scalar level3_network.node[2].core_layer 	repo_load[2] 	13379
scalar level3_network.node[2].core_layer 	data[2] 	13781
scalar level3_network.node[2].content_store 	p_hit[2] 	0.092573413957839
scalar level3_network.node[2].content_store 	hits[2] 	2771
scalar level3_network.node[2].content_store 	misses[2] 	27162
scalar level3_network.node[2].content_store 	decision_yes[2] 	17727
scalar level3_network.node[2].content_store 	decision_no[2] 	9433
scalar level3_network.node[2].content_store 	decision_ratio[2] 	0.65268777614138
scalar level3_network.node[3].core_layer 	interests[3] 	34281
scalar level3_network.node[3].core_layer 	data[3] 	28308
scalar level3_network.node[3].content_store 	p_hit[3] 	0.1740614334471
scalar level3_network.node[3].content_store 	hits[3] 	5967
scalar level3_network.node[3].content_store 	misses[3] 	28314
scalar level3_network.node[3].content_store 	decision_yes[3] 	3502
scalar level3_network.node[3].content_store 	decision_no[3] 	24805
scalar level3_network.node[3].content_store 	decision_ratio[3] 	0.12371498215989
scalar level3_network.node[4].core_layer 	interests[4] 	13883
scalar level3_network.node[4].core_layer 	data[4] 	9016
scalar level3_network.node[4].content_store 	p_hit[4] 	0.35028452063675
scalar level3_network.node[4].content_store 	hits[4] 	4863
scalar level3_network.node[4].content_store 	misses[4] 	9020
scalar level3_network.node[4].content_store 	decision_yes[4] 	1047
scalar level3_network.node[4].content_store 	decision_no[4] 	7969
scalar level3_network.node[4].content_store 	decision_ratio[4] 	0.11612688553682
scalar level3_network.node[5].core_layer 	interests[5] 	17589
scalar level3_network.node[5].core_layer 	repo_load[5] 	13766
scalar level3_network.node[5].core_layer 	data[5] 	2552
scalar level3_network.node[5].content_store 	p_hit[5] 	0.072317925976463
scalar level3_network.node[5].content_store 	hits[5] 	1272
scalar level3_network.node[5].content_store 	misses[5] 	16317
scalar level3_network.node[5].content_store 	decision_yes[5] 	14274
scalar level3_network.node[5].content_store 	decision_no[5] 	2044
scalar level3_network.node[5].content_store 	decision_ratio[5] 	0.87473955141561
scalar level3_network.node[6].core_layer 	interests[6] 	13388
scalar level3_network.node[6].core_layer 	data[6] 	9135
scalar level3_network.node[6].content_store 	p_hit[6] 	0.31759784881984
scalar level3_network.node[6].content_store 	hits[6] 	4252
scalar level3_network.node[6].content_store 	misses[6] 	9136
scalar level3_network.node[6].content_store 	decision_yes[6] 	1336
scalar level3_network.node[6].content_store 	decision_no[6] 	7799
scalar level3_network.node[6].content_store 	decision_ratio[6] 	0.14625068418172
scalar level3_network.node[7].core_layer 	interests[7] 	124227
scalar level3_network.node[7].core_layer 	repo_load[7] 	13948
scalar level3_network.node[7].core_layer 	data[7] 	104452
scalar level3_network.node[7].content_store 	p_hit[7] 	0.046471379007784
scalar level3_network.node[7].content_store 	hits[7] 	5773
scalar level3_network.node[7].content_store 	misses[7] 	118454
scalar level3_network.node[7].content_store 	decision_yes[7] 	31306
scalar level3_network.node[7].content_store 	decision_no[7] 	87088
scalar level3_network.node[7].content_store 	decision_ratio[7] 	0.2644221835566
scalar level3_network.node[8].core_layer 	interests[8] 	44075
scalar level3_network.node[8].core_layer 	data[8] 	33438
scalar level3_network.node[8].content_store 	p_hit[8] 	0.24115711854793
scalar level3_network.node[8].content_store 	hits[8] 	10629
scalar level3_network.node[8].content_store 	misses[8] 	33446
scalar level3_network.node[8].content_store 	decision_yes[8] 	6127
scalar level3_network.node[8].content_store 	decision_no[8] 	27311
scalar level3_network.node[8].content_store 	decision_ratio[8] 	0.18323464322029
scalar level3_network.node[9].core_layer 	interests[9] 	27067
scalar level3_network.node[9].core_layer 	repo_load[9] 	13707
scalar level3_network.node[9].core_layer 	data[9] 	10077
scalar level3_network.node[9].content_store 	p_hit[9] 	0.12118077363579
scalar level3_network.node[9].content_store 	hits[9] 	3280
scalar level3_network.node[9].content_store 	misses[9] 	23787
scalar level3_network.node[9].content_store 	decision_yes[9] 	16988
scalar level3_network.node[9].content_store 	decision_no[9] 	6796
scalar level3_network.node[9].content_store 	decision_ratio[9] 	0.7142616885301
scalar level3_network.node[10].core_layer 	interests[10] 	14115
scalar level3_network.node[10].core_layer 	repo_load[10] 	13095
scalar level3_network.node[10].core_layer 	data[10] 	0
scalar level3_network.node[10].content_store 	p_hit[10] 	0.072263549415515
scalar level3_network.node[10].content_store 	hits[10] 	1020
scalar level3_network.node[10].content_store 	misses[10] 	13095
scalar level3_network.node[10].content_store 	decision_yes[10] 	13095
scalar level3_network.node[10].content_store 	decision_no[10] 	0
scalar level3_network.node[10].content_store 	decision_ratio[10] 	1
scalar level3_network.node[11].core_layer 	interests[11] 	59792
scalar level3_network.node[11].core_layer 	data[11] 	49598
scalar level3_network.node[11].content_store 	p_hit[11] 	0.16988894835429
scalar level3_network.node[11].content_store 	hits[11] 	10158
scalar level3_network.node[11].content_store 	misses[11] 	49634
scalar level3_network.node[11].content_store 	decision_yes[11] 	8596
scalar level3_network.node[11].content_store 	decision_no[11] 	40998
scalar level3_network.node[11].content_store 	decision_ratio[11] 	0.17332741863935
scalar level3_network.node[12].core_layer 	interests[12] 	13776
scalar level3_network.node[12].core_layer 	data[12] 	8970
scalar level3_network.node[12].content_store 	p_hit[12] 	0.3487950058072
scalar level3_network.node[12].content_store 	hits[12] 	4805
scalar level3_network.node[12].content_store 	misses[12] 	8971
scalar level3_network.node[12].content_store 	decision_yes[12] 	1555
scalar level3_network.node[12].content_store 	decision_no[12] 	7415
scalar level3_network.node[12].content_store 	decision_ratio[12] 	0.17335562987737
scalar level3_network.node[13].core_layer 	interests[13] 	0
scalar level3_network.node[13].core_layer 	data[13] 	0
scalar level3_network.node[13].content_store 	p_hit[13] 	-nan
scalar level3_network.node[13].content_store 	hits[13] 	0
scalar level3_network.node[13].content_store 	misses[13] 	0
scalar level3_network.node[13].content_store 	decision_yes[13] 	0
scalar level3_network.node[13].content_store 	decision_no[13] 	0
scalar level3_network.node[13].content_store 	decision_ratio[13] 	0
scalar level3_network.node[14].core_layer 	interests[14] 	15018
scalar level3_network.node[14].core_layer 	data[14] 	8976
scalar level3_network.node[14].content_store 	p_hit[14] 	0.4023172193368
scalar level3_network.node[14].content_store 	hits[14] 	6042
scalar level3_network.node[14].content_store 	misses[14] 	8976
scalar level3_network.node[14].content_store 	decision_yes[14] 	1505
scalar level3_network.node[14].content_store 	decision_no[14] 	7471
scalar level3_network.node[14].content_store 	decision_ratio[14] 	0.16766934046346
scalar level3_network.node[15].core_layer 	interests[15] 	26162
scalar level3_network.node[15].core_layer 	repo_load[15] 	13610
scalar level3_network.node[15].core_layer 	data[15] 	9945
scalar level3_network.node[15].content_store 	p_hit[15] 	0.099533674795505
scalar level3_network.node[15].content_store 	hits[15] 	2604
scalar level3_network.node[15].content_store 	misses[15] 	23558
scalar level3_network.node[15].content_store 	decision_yes[15] 	16268
scalar level3_network.node[15].content_store 	decision_no[15] 	7287
scalar level3_network.node[15].content_store 	decision_ratio[15] 	0.69063893016345
scalar level3_network.node[16].core_layer 	interests[16] 	14111
scalar level3_network.node[16].core_layer 	repo_load[16] 	13044
scalar level3_network.node[16].core_layer 	data[16] 	0
scalar level3_network.node[16].content_store 	p_hit[16] 	0.075614768620225
scalar level3_network.node[16].content_store 	hits[16] 	1067
scalar level3_network.node[16].content_store 	misses[16] 	13044
scalar level3_network.node[16].content_store 	decision_yes[16] 	13044
scalar level3_network.node[16].content_store 	decision_no[16] 	0
scalar level3_network.node[16].content_store 	decision_ratio[16] 	1
scalar level3_network.node[17].core_layer 	interests[17] 	21189
scalar level3_network.node[17].core_layer 	data[17] 	9076
scalar level3_network.node[17].content_store 	p_hit[17] 	0.57161734862429
scalar level3_network.node[17].content_store 	hits[17] 	12112
scalar level3_network.node[17].content_store 	misses[17] 	9077
scalar level3_network.node[17].content_store 	decision_yes[17] 	2383
scalar level3_network.node[17].content_store 	decision_no[17] 	6693
scalar level3_network.node[17].content_store 	decision_ratio[17] 	0.26256059938299
scalar level3_network.node[18].core_layer 	interests[18] 	29303
scalar level3_network.node[18].core_layer 	data[18] 	16745
scalar level3_network.node[18].content_store 	p_hit[18] 	0.42835204586561
scalar level3_network.node[18].content_store 	hits[18] 	12552
scalar level3_network.node[18].content_store 	misses[18] 	16751
scalar level3_network.node[18].content_store 	decision_yes[18] 	4486
scalar level3_network.node[18].content_store 	decision_no[18] 	12259
scalar level3_network.node[18].content_store 	decision_ratio[18] 	0.26790086593013
scalar level3_network.node[19].core_layer 	interests[19] 	14161
scalar level3_network.node[19].core_layer 	repo_load[19] 	13105
scalar level3_network.node[19].core_layer 	data[19] 	0
scalar level3_network.node[19].content_store 	p_hit[19] 	0.074571004872537
scalar level3_network.node[19].content_store 	hits[19] 	1056
scalar level3_network.node[19].content_store 	misses[19] 	13105
scalar level3_network.node[19].content_store 	decision_yes[19] 	13105
scalar level3_network.node[19].content_store 	decision_no[19] 	0
scalar level3_network.node[19].content_store 	decision_ratio[19] 	1
scalar level3_network.node[20].core_layer 	interests[20] 	0
scalar level3_network.node[20].core_layer 	data[20] 	0
scalar level3_network.node[20].content_store 	p_hit[20] 	-nan
scalar level3_network.node[20].content_store 	hits[20] 	0
scalar level3_network.node[20].content_store 	misses[20] 	0
scalar level3_network.node[20].content_store 	decision_yes[20] 	0
scalar level3_network.node[20].content_store 	decision_no[20] 	0
scalar level3_network.node[20].content_store 	decision_ratio[20] 	0
scalar level3_network.node[21].core_layer 	interests[21] 	13237
scalar level3_network.node[21].core_layer 	data[21] 	8975
scalar level3_network.node[21].content_store 	p_hit[21] 	0.32212737025006
scalar level3_network.node[21].content_store 	hits[21] 	4264
scalar level3_network.node[21].content_store 	misses[21] 	8973
scalar level3_network.node[21].content_store 	decision_yes[21] 	471
scalar level3_network.node[21].content_store 	decision_no[21] 	8504
scalar level3_network.node[21].content_store 	decision_ratio[21] 	0.052479108635097
scalar level3_network.node[22].core_layer 	interests[22] 	26054
scalar level3_network.node[22].core_layer 	repo_load[22] 	13668
scalar level3_network.node[22].core_layer 	data[22] 	9824
scalar level3_network.node[22].content_store 	p_hit[22] 	0.098219083442082
scalar level3_network.node[22].content_store 	hits[22] 	2559
scalar level3_network.node[22].content_store 	misses[22] 	23495
scalar level3_network.node[22].content_store 	decision_yes[22] 	16306
scalar level3_network.node[22].content_store 	decision_no[22] 	7186
scalar level3_network.node[22].content_store 	decision_ratio[22] 	0.69410863272603
scalar level3_network.node[23].core_layer 	interests[23] 	13447
scalar level3_network.node[23].core_layer 	data[23] 	8965
scalar level3_network.node[23].content_store 	p_hit[23] 	0.3332341786272
scalar level3_network.node[23].content_store 	hits[23] 	4481
scalar level3_network.node[23].content_store 	misses[23] 	8966
scalar level3_network.node[23].content_store 	decision_yes[23] 	1390
scalar level3_network.node[23].content_store 	decision_no[23] 	7575
scalar level3_network.node[23].content_store 	decision_ratio[23] 	0.15504740658115
scalar level3_network.node[24].core_layer 	interests[24] 	0
scalar level3_network.node[24].core_layer 	data[24] 	0
scalar level3_network.node[24].content_store 	p_hit[24] 	-nan
scalar level3_network.node[24].content_store 	hits[24] 	0
scalar level3_network.node[24].content_store 	misses[24] 	0
scalar level3_network.node[24].content_store 	decision_yes[24] 	0
scalar level3_network.node[24].content_store 	decision_no[24] 	0
scalar level3_network.node[24].content_store 	decision_ratio[24] 	0
scalar level3_network.node[25].core_layer 	interests[25] 	13473
scalar level3_network.node[25].core_layer 	data[25] 	8945
scalar level3_network.node[25].content_store 	p_hit[25] 	0.33607956654049
scalar level3_network.node[25].content_store 	hits[25] 	4528
scalar level3_network.node[25].content_store 	misses[25] 	8945
scalar level3_network.node[25].content_store 	decision_yes[25] 	1387
scalar level3_network.node[25].content_store 	decision_no[25] 	7558
scalar level3_network.node[25].content_store 	decision_ratio[25] 	0.15505869200671
scalar level3_network.node[26].core_layer 	interests[26] 	0
scalar level3_network.node[26].core_layer 	data[26] 	0
scalar level3_network.node[26].content_store 	p_hit[26] 	-nan
scalar level3_network.node[26].content_store 	hits[26] 	0
scalar level3_network.node[26].content_store 	misses[26] 	0
scalar level3_network.node[26].content_store 	decision_yes[26] 	0
scalar level3_network.node[26].content_store 	decision_no[26] 	0
scalar level3_network.node[26].content_store 	decision_ratio[26] 	0
scalar level3_network.node[27].core_layer 	interests[27] 	13952
scalar level3_network.node[27].core_layer 	data[27] 	9200
scalar level3_network.node[27].content_store 	p_hit[27] 	0.34038130733945
scalar level3_network.node[27].content_store 	hits[27] 	4749
scalar level3_network.node[27].content_store 	misses[27] 	9203
scalar level3_network.node[27].content_store 	decision_yes[27] 	1502
scalar level3_network.node[27].content_store 	decision_no[27] 	7698
scalar level3_network.node[27].content_store 	decision_ratio[27] 	0.16326086956522
scalar level3_network.node[28].core_layer 	interests[28] 	14006
scalar level3_network.node[28].core_layer 	data[28] 	9148
scalar level3_network.node[28].content_store 	p_hit[28] 	0.34692274739397
scalar level3_network.node[28].content_store 	hits[28] 	4859
scalar level3_network.node[28].content_store 	misses[28] 	9147
scalar level3_network.node[28].content_store 	decision_yes[28] 	1520
scalar level3_network.node[28].content_store 	decision_no[28] 	7628
scalar level3_network.node[28].content_store 	decision_ratio[28] 	0.16615653694797
scalar level3_network.node[29].core_layer 	interests[29] 	15268
scalar level3_network.node[29].core_layer 	repo_load[29] 	14079
scalar level3_network.node[29].core_layer 	data[29] 	0
scalar level3_network.node[29].content_store 	p_hit[29] 	0.077875294734084
scalar level3_network.node[29].content_store 	hits[29] 	1189
scalar level3_network.node[29].content_store 	misses[29] 	14079
scalar level3_network.node[29].content_store 	decision_yes[29] 	14079
scalar level3_network.node[29].content_store 	decision_no[29] 	0
scalar level3_network.node[29].content_store 	decision_ratio[29] 	1
scalar level3_network.node[30].core_layer 	interests[30] 	14371
scalar level3_network.node[30].core_layer 	data[30] 	9052
scalar level3_network.node[30].content_store 	p_hit[30] 	0.37005079674344
scalar level3_network.node[30].content_store 	hits[30] 	5318
scalar level3_network.node[30].content_store 	misses[30] 	9053
scalar level3_network.node[30].content_store 	decision_yes[30] 	1460
scalar level3_network.node[30].content_store 	decision_no[30] 	7592
scalar level3_network.node[30].content_store 	decision_ratio[30] 	0.16129032258065
scalar level3_network.node[31].core_layer 	interests[31] 	26153
scalar level3_network.node[31].core_layer 	repo_load[31] 	13650
scalar level3_network.node[31].core_layer 	data[31] 	9849
scalar level3_network.node[31].content_store 	p_hit[31] 	0.10136504416319
scalar level3_network.node[31].content_store 	hits[31] 	2651
scalar level3_network.node[31].content_store 	misses[31] 	23502
scalar level3_network.node[31].content_store 	decision_yes[31] 	16168
scalar level3_network.node[31].content_store 	decision_no[31] 	7331
scalar level3_network.node[31].content_store 	decision_ratio[31] 	0.68802927784161
scalar level3_network.node[32].core_layer 	interests[32] 	13999
scalar level3_network.node[32].core_layer 	data[32] 	9106
scalar level3_network.node[32].content_store 	p_hit[32] 	0.349524966069
scalar level3_network.node[32].content_store 	hits[32] 	4893
scalar level3_network.node[32].content_store 	misses[32] 	9106
scalar level3_network.node[32].content_store 	decision_yes[32] 	1514
scalar level3_network.node[32].content_store 	decision_no[32] 	7592
scalar level3_network.node[32].content_store 	decision_ratio[32] 	0.16626400175708
scalar level3_network.node[33].core_layer 	interests[33] 	25488
scalar level3_network.node[33].core_layer 	repo_load[33] 	13279
scalar level3_network.node[33].core_layer 	data[33] 	9634
scalar level3_network.node[33].content_store 	p_hit[33] 	0.10075329566855
scalar level3_network.node[33].content_store 	hits[33] 	2568
scalar level3_network.node[33].content_store 	misses[33] 	22920
scalar level3_network.node[33].content_store 	decision_yes[33] 	15801
scalar level3_network.node[33].content_store 	decision_no[33] 	7112
scalar level3_network.node[33].content_store 	decision_ratio[33] 	0.68960851918125
scalar level3_network.node[34].core_layer 	interests[34] 	26423
scalar level3_network.node[34].core_layer 	repo_load[34] 	14151
scalar level3_network.node[34].core_layer 	data[34] 	9599
scalar level3_network.node[34].content_store 	p_hit[34] 	0.10097263747493
scalar level3_network.node[34].content_store 	hits[34] 	2668
scalar level3_network.node[34].content_store 	misses[34] 	23755
scalar level3_network.node[34].content_store 	decision_yes[34] 	16674
scalar level3_network.node[34].content_store 	decision_no[34] 	7076
scalar level3_network.node[34].content_store 	decision_ratio[34] 	0.70206315789474
scalar level3_network.node[35].core_layer 	interests[35] 	0
scalar level3_network.node[35].core_layer 	data[35] 	0
scalar level3_network.node[35].content_store 	p_hit[35] 	-nan
scalar level3_network.node[35].content_store 	hits[35] 	0
scalar level3_network.node[35].content_store 	misses[35] 	0
scalar level3_network.node[35].content_store 	decision_yes[35] 	0
scalar level3_network.node[35].content_store 	decision_no[35] 	0
scalar level3_network.node[35].content_store 	decision_ratio[35] 	0
scalar level3_network.node[36].core_layer 	interests[36] 	13579
scalar level3_network.node[36].core_layer 	data[36] 	9061
scalar level3_network.node[36].content_store 	p_hit[36] 	0.33249871124531
scalar level3_network.node[36].content_store 	hits[36] 	4515
scalar level3_network.node[36].content_store 	misses[36] 	9064
scalar level3_network.node[36].content_store 	decision_yes[36] 	1467
scalar level3_network.node[36].content_store 	decision_no[36] 	7594
scalar level3_network.node[36].content_store 	decision_ratio[36] 	0.16190265975058
scalar level3_network.node[37].core_layer 	interests[37] 	13701
scalar level3_network.node[37].core_layer 	data[37] 	9164
scalar level3_network.node[37].content_store 	p_hit[37] 	0.33107072476462
scalar level3_network.node[37].content_store 	hits[37] 	4536
scalar level3_network.node[37].content_store 	misses[37] 	9165
scalar level3_network.node[37].content_store 	decision_yes[37] 	1552
scalar level3_network.node[37].content_store 	decision_no[37] 	7612
scalar level3_network.node[37].content_store 	decision_ratio[37] 	0.16935835879529
scalar level3_network.node[38].core_layer 	interests[38] 	14036
scalar level3_network.node[38].core_layer 	data[38] 	9135
scalar level3_network.node[38].content_store 	p_hit[38] 	0.34903106298091
scalar level3_network.node[38].content_store 	hits[38] 	4899
scalar level3_network.node[38].content_store 	misses[38] 	9137
scalar level3_network.node[38].content_store 	decision_yes[38] 	1545
scalar level3_network.node[38].content_store 	decision_no[38] 	7590
scalar level3_network.node[38].content_store 	decision_ratio[38] 	0.16912972085386
scalar level3_network.node[39].core_layer 	interests[39] 	26165
scalar level3_network.node[39].core_layer 	repo_load[39] 	13823
scalar level3_network.node[39].core_layer 	data[39] 	9712
scalar level3_network.node[39].content_store 	p_hit[39] 	0.10040129944582
scalar level3_network.node[39].content_store 	hits[39] 	2627
scalar level3_network.node[39].content_store 	misses[39] 	23538
scalar level3_network.node[39].content_store 	decision_yes[39] 	16564
scalar level3_network.node[39].content_store 	decision_no[39] 	6971
scalar level3_network.node[39].content_store 	decision_ratio[39] 	0.70380284682388
scalar level3_network.node[40].core_layer 	interests[40] 	25705
scalar level3_network.node[40].core_layer 	repo_load[40] 	13173
scalar level3_network.node[40].core_layer 	data[40] 	10068
scalar level3_network.node[40].content_store 	p_hit[40] 	0.095779031316864
scalar level3_network.node[40].content_store 	hits[40] 	2462
scalar level3_network.node[40].content_store 	misses[40] 	23243
scalar level3_network.node[40].content_store 	decision_yes[40] 	15117
scalar level3_network.node[40].content_store 	decision_no[40] 	8124
scalar level3_network.node[40].content_store 	decision_ratio[40] 	0.65044533367755
scalar level3_network.node[41].core_layer 	interests[41] 	0
scalar level3_network.node[41].core_layer 	data[41] 	0
scalar level3_network.node[41].content_store 	p_hit[41] 	-nan
scalar level3_network.node[41].content_store 	hits[41] 	0
scalar level3_network.node[41].content_store 	misses[41] 	0
scalar level3_network.node[41].content_store 	decision_yes[41] 	0
scalar level3_network.node[41].content_store 	decision_no[41] 	0
scalar level3_network.node[41].content_store 	decision_ratio[41] 	0
scalar level3_network.node[42].core_layer 	interests[42] 	13870
scalar level3_network.node[42].core_layer 	data[42] 	9112
scalar level3_network.node[42].content_store 	p_hit[42] 	0.34289834174477
scalar level3_network.node[42].content_store 	hits[42] 	4756
scalar level3_network.node[42].content_store 	misses[42] 	9114
scalar level3_network.node[42].content_store 	decision_yes[42] 	1026
scalar level3_network.node[42].content_store 	decision_no[42] 	8086
scalar level3_network.node[42].content_store 	decision_ratio[42] 	0.11259877085162
scalar level3_network.node[43].core_layer 	interests[43] 	12941
scalar level3_network.node[43].core_layer 	data[43] 	8813
scalar level3_network.node[43].content_store 	p_hit[43] 	0.3189861679932
scalar level3_network.node[43].content_store 	hits[43] 	4128
scalar level3_network.node[43].content_store 	misses[43] 	8813
scalar level3_network.node[43].content_store 	decision_yes[43] 	448
scalar level3_network.node[43].content_store 	decision_no[43] 	8365
scalar level3_network.node[43].content_store 	decision_ratio[43] 	0.050833995234313
scalar level3_network.node[44].core_layer 	interests[44] 	14270
scalar level3_network.node[44].core_layer 	repo_load[44] 	13344
scalar level3_network.node[44].core_layer 	data[44] 	0
scalar level3_network.node[44].content_store 	p_hit[44] 	0.06489138051857
scalar level3_network.node[44].content_store 	hits[44] 	926
scalar level3_network.node[44].content_store 	misses[44] 	13344
scalar level3_network.node[44].content_store 	decision_yes[44] 	13344
scalar level3_network.node[44].content_store 	decision_no[44] 	0
scalar level3_network.node[44].content_store 	decision_ratio[44] 	1
scalar level3_network.node[45].core_layer 	interests[45] 	13099
scalar level3_network.node[45].core_layer 	data[45] 	8940
scalar level3_network.node[45].content_store 	p_hit[45] 	0.31742881135965
scalar level3_network.node[45].content_store 	hits[45] 	4158
scalar level3_network.node[45].content_store 	misses[45] 	8941
scalar level3_network.node[45].content_store 	decision_yes[45] 	630
scalar level3_network.node[45].content_store 	decision_no[45] 	8310
scalar level3_network.node[45].content_store 	decision_ratio[45] 	0.070469798657718
scalar level3_network.client[2] 	hdistance[2] 	2.0059960026649
scalar level3_network.client[2] 	downloads[2] 	12008
scalar level3_network.client[2] 	avg_time[2] 	0.052541395041
scalar level3_network.client[3] 	hdistance[3] 	1.8998916395766
scalar level3_network.client[3] 	downloads[3] 	11997
scalar level3_network.client[3] 	avg_time[3] 	0.050593911226
scalar level3_network.client[4] 	hdistance[4] 	1.9599239795075
scalar level3_network.client[4] 	downloads[4] 	12102
scalar level3_network.client[4] 	avg_time[4] 	0.050568053918
scalar level3_network.client[6] 	hdistance[6] 	1.8612702366127
scalar level3_network.client[6] 	downloads[6] 	12045
scalar level3_network.client[6] 	avg_time[6] 	0.024523416697
scalar level3_network.client[7] 	hdistance[7] 	1.5211428571429
scalar level3_network.client[7] 	downloads[7] 	12250
scalar level3_network.client[7] 	avg_time[7] 	0.020237437477
scalar level3_network.client[8] 	hdistance[8] 	1.4372131831456
scalar level3_network.client[8] 	downloads[8] 	11985
scalar level3_network.client[8] 	avg_time[8] 	0.018999230966
scalar level3_network.client[9] 	hdistance[9] 	1.6881106143401
scalar level3_network.client[9] 	downloads[9] 	12078
scalar level3_network.client[9] 	avg_time[9] 	0.023272634591
scalar level3_network.client[11] 	hdistance[11] 	1.4144645340751
scalar level3_network.client[11] 	downloads[11] 	12223
scalar level3_network.client[11] 	avg_time[11] 	0.021874589542
scalar level3_network.client[12] 	hdistance[12] 	1.7558618371292
scalar level3_network.client[12] 	downloads[12] 	11899
scalar level3_network.client[12] 	avg_time[12] 	0.028743234676
scalar level3_network.client[14] 	hdistance[14] 	1.706702057067
scalar level3_network.client[14] 	downloads[14] 	12056
scalar level3_network.client[14] 	avg_time[14] 	0.022372221288
scalar level3_network.client[15] 	hdistance[15] 	1.8204790517738
scalar level3_network.client[15] 	downloads[15] 	12149
scalar level3_network.client[15] 	avg_time[15] 	0.032041416421
scalar level3_network.client[17] 	hdistance[17] 	1.4129150370309
scalar level3_network.client[17] 	downloads[17] 	12017
scalar level3_network.client[17] 	avg_time[17] 	0.025457524389
scalar level3_network.client[18] 	hdistance[18] 	1.4046147507211
scalar level3_network.client[18] 	downloads[18] 	12135
scalar level3_network.client[18] 	avg_time[18] 	0.020827847853
scalar level3_network.client[21] 	hdistance[21] 	2.5042608980662
scalar level3_network.client[21] 	downloads[21] 	12204
scalar level3_network.client[21] 	avg_time[21] 	0.051106791078
scalar level3_network.client[22] 	hdistance[22] 	1.8713985720286
scalar level3_network.client[22] 	downloads[22] 	11905
scalar level3_network.client[22] 	avg_time[22] 	0.026801297586
scalar level3_network.client[23] 	hdistance[23] 	1.8539278489548
scalar level3_network.client[23] 	downloads[23] 	11864
scalar level3_network.client[23] 	avg_time[23] 	0.019856511365
scalar level3_network.client[25] 	hdistance[25] 	1.8457195820694
scalar level3_network.client[25] 	downloads[25] 	11868
scalar level3_network.client[25] 	avg_time[25] 	0.019866791568
scalar level3_network.client[27] 	hdistance[27] 	1.8147290028962
scalar level3_network.client[27] 	downloads[27] 	12085
scalar level3_network.client[27] 	avg_time[27] 	0.029629657945
scalar level3_network.client[28] 	hdistance[28] 	1.809084869623
scalar level3_network.client[28] 	downloads[28] 	12042
scalar level3_network.client[28] 	avg_time[28] 	0.02911782327
scalar level3_network.client[30] 	hdistance[30] 	1.7674186298177
scalar level3_network.client[30] 	downloads[30] 	12013
scalar level3_network.client[30] 	avg_time[30] 	0.022530876854
scalar level3_network.client[31] 	hdistance[31] 	1.8781323973553
scalar level3_network.client[31] 	downloads[31] 	12251
scalar level3_network.client[31] 	avg_time[31] 	0.033495698378
scalar level3_network.client[32] 	hdistance[32] 	1.7923732318637
scalar level3_network.client[32] 	downloads[32] 	12089
scalar level3_network.client[32] 	avg_time[32] 	0.026791110128
scalar level3_network.client[33] 	hdistance[33] 	1.8863540702079
scalar level3_network.client[33] 	downloads[33] 	11879
scalar level3_network.client[33] 	avg_time[33] 	0.027221672904
scalar level3_network.client[34] 	hdistance[34] 	1.8990482664854
scalar level3_network.client[34] 	downloads[34] 	11768
scalar level3_network.client[34] 	avg_time[34] 	0.035328223879
scalar level3_network.client[36] 	hdistance[36] 	1.8569990774134
scalar level3_network.client[36] 	downloads[36] 	11923
scalar level3_network.client[36] 	avg_time[36] 	0.02439917372
scalar level3_network.client[37] 	hdistance[37] 	1.8577266283046
scalar level3_network.client[37] 	downloads[37] 	11991
scalar level3_network.client[37] 	avg_time[37] 	0.027117341368
scalar level3_network.client[38] 	hdistance[38] 	1.8112816258814
scalar level3_network.client[38] 	downloads[38] 	12055
scalar level3_network.client[38] 	avg_time[38] 	0.031590796507
scalar level3_network.client[39] 	hdistance[39] 	1.8811034949649
scalar level3_network.client[39] 	downloads[39] 	11817
scalar level3_network.client[39] 	avg_time[39] 	0.023771127061
scalar level3_network.client[40] 	hdistance[40] 	2.0694923607688
scalar level3_network.client[40] 	downloads[40] 	12174
scalar level3_network.client[40] 	avg_time[40] 	0.025224956993
scalar level3_network.client[42] 	hdistance[42] 	1.982811337906
scalar level3_network.client[42] 	downloads[42] 	12101
scalar level3_network.client[42] 	avg_time[42] 	0.052298810548
scalar level3_network.client[43] 	hdistance[43] 	2.5046307884856
scalar level3_network.client[43] 	downloads[43] 	11985
scalar level3_network.client[43] 	avg_time[43] 	0.053907199141
scalar level3_network.client[45] 	hdistance[45] 	2.043160634814
scalar level3_network.client[45] 	downloads[45] 	11909
scalar level3_network.client[45] 	avg_time[45] 	0.057165230496
