version 2
run General-195-20160820-12:07:37-856
attr a 0.9
attr cd lcd
attr configname General
attr cr lru
attr datetime 20160820-12:07:37
attr experiment General
attr fsize 1
attr inifile hw5115/scenario_A/SPR-LCD.ini
attr iterationvars "$name=tree_4_3, $un=09, $rep=16, $cd=lcd, $cr=lru, $fsize=1, $a=0.9, $sl=spr, $ttl=1000, $variance=0.05"
attr iterationvars2 "$name=tree_4_3, $un=09, $rep=16, $cd=lcd, $cr=lru, $fsize=1, $a=0.9, $sl=spr, $ttl=1000, $variance=0.05, $repetition=0"
attr measurement "$name=tree_4_3, $un=09, $rep=16, $cd=lcd, $cr=lru, $fsize=1, $a=0.9, $sl=spr, $ttl=1000, $variance=0.05"
attr name tree_4_3
attr network networks.${name}_u${un}_r${rep}_network
attr processid 856
attr rep 16
attr repetition 0
attr replication #0
attr resultdir results
attr runnumber 195
attr seedset 16
attr sl spr
attr ttl 1000
attr un 09
attr variance 0.05

scalar . 	a 	0.9
scalar . 	fsize 	1
scalar . 	rep 	16
scalar . 	ttl 	1000
scalar . 	un 	09
scalar . 	variance 	0.05
scalar tree_4_3_u09_r16_network.content_distribution 	repo-0 	0
scalar tree_4_3_u09_r16_network.content_distribution 	client-0 	13
scalar tree_4_3_u09_r16_network.content_distribution 	client-1 	14
scalar tree_4_3_u09_r16_network.content_distribution 	client-2 	15
scalar tree_4_3_u09_r16_network.content_distribution 	client-3 	16
scalar tree_4_3_u09_r16_network.content_distribution 	client-4 	17
scalar tree_4_3_u09_r16_network.content_distribution 	client-5 	18
scalar tree_4_3_u09_r16_network.content_distribution 	client-6 	19
scalar tree_4_3_u09_r16_network.content_distribution 	client-7 	20
scalar tree_4_3_u09_r16_network.content_distribution 	client-8 	21
scalar tree_4_3_u09_r16_network.content_distribution 	client-9 	22
scalar tree_4_3_u09_r16_network.content_distribution 	client-10 	23
scalar tree_4_3_u09_r16_network.content_distribution 	client-11 	24
scalar tree_4_3_u09_r16_network.content_distribution 	client-12 	25
scalar tree_4_3_u09_r16_network.content_distribution 	client-13 	26
scalar tree_4_3_u09_r16_network.content_distribution 	client-14 	27
scalar tree_4_3_u09_r16_network.content_distribution 	client-15 	28
scalar tree_4_3_u09_r16_network.content_distribution 	client-16 	29
scalar tree_4_3_u09_r16_network.content_distribution 	client-17 	30
scalar tree_4_3_u09_r16_network.content_distribution 	client-18 	31
scalar tree_4_3_u09_r16_network.content_distribution 	client-19 	32
scalar tree_4_3_u09_r16_network.content_distribution 	client-20 	33
scalar tree_4_3_u09_r16_network.content_distribution 	client-21 	34
scalar tree_4_3_u09_r16_network.content_distribution 	client-22 	35
scalar tree_4_3_u09_r16_network.content_distribution 	client-23 	36
scalar tree_4_3_u09_r16_network.content_distribution 	client-24 	37
scalar tree_4_3_u09_r16_network.content_distribution 	client-25 	38
scalar tree_4_3_u09_r16_network.content_distribution 	client-26 	39
scalar tree_4_3_u09_r16_network.content_distribution 	repo-0_card 	100000
scalar tree_4_3_u09_r16_network.content_distribution 	repo-0_price 	0
scalar tree_4_3_u09_r16_network.statistics 	stabilization_time 	2245.3
scalar tree_4_3_u09_r16_network.statistics 	p_hit 	0.18784986019505
scalar tree_4_3_u09_r16_network.statistics 	interests 	25430.9
scalar tree_4_3_u09_r16_network.statistics 	data 	17333.125
scalar tree_4_3_u09_r16_network.statistics 	hdistance 	2.8305715163977
scalar tree_4_3_u09_r16_network.statistics 	avg_time 	0.004281104878
scalar tree_4_3_u09_r16_network.statistics 	downloads 	323900
scalar tree_4_3_u09_r16_network.statistics 	total_cost 	0
scalar tree_4_3_u09_r16_network.statistics 	total_replicas 	100000
scalar tree_4_3_u09_r16_network.statistics 	inner_hit 	0.31000308737265
scalar tree_4_3_u09_r16_network.node[0].core_layer 	interests[0] 	225727
scalar tree_4_3_u09_r16_network.node[0].core_layer 	repo_load[0] 	223490
scalar tree_4_3_u09_r16_network.node[0].core_layer 	data[0] 	0
scalar tree_4_3_u09_r16_network.node[0].core_layer 	repo_int[0] 	223490
scalar tree_4_3_u09_r16_network.node[0].content_store 	p_hit[0] 	0.0099102012608151
scalar tree_4_3_u09_r16_network.node[0].content_store 	hits[0] 	2237
scalar tree_4_3_u09_r16_network.node[0].content_store 	misses[0] 	223490
scalar tree_4_3_u09_r16_network.node[0].content_store 	decision_yes[0] 	223490
scalar tree_4_3_u09_r16_network.node[0].content_store 	decision_no[0] 	0
scalar tree_4_3_u09_r16_network.node[0].content_store 	decision_ratio[0] 	1
scalar tree_4_3_u09_r16_network.node[1].core_layer 	interests[1] 	160939
scalar tree_4_3_u09_r16_network.node[1].core_layer 	data[1] 	157703
scalar tree_4_3_u09_r16_network.node[1].content_store 	p_hit[1] 	0.020088356458037
scalar tree_4_3_u09_r16_network.node[1].content_store 	hits[1] 	3233
scalar tree_4_3_u09_r16_network.node[1].content_store 	misses[1] 	157706
scalar tree_4_3_u09_r16_network.node[1].content_store 	decision_yes[1] 	1580
scalar tree_4_3_u09_r16_network.node[1].content_store 	decision_no[1] 	156123
scalar tree_4_3_u09_r16_network.node[1].content_store 	decision_ratio[1] 	0.010018832869381
scalar tree_4_3_u09_r16_network.node[2].core_layer 	interests[2] 	34505
scalar tree_4_3_u09_r16_network.node[2].core_layer 	data[2] 	34095
scalar tree_4_3_u09_r16_network.node[2].content_store 	p_hit[2] 	0.011882335893349
scalar tree_4_3_u09_r16_network.node[2].content_store 	hits[2] 	410
scalar tree_4_3_u09_r16_network.node[2].content_store 	misses[2] 	34095
scalar tree_4_3_u09_r16_network.node[2].content_store 	decision_yes[2] 	304
scalar tree_4_3_u09_r16_network.node[2].content_store 	decision_no[2] 	33791
scalar tree_4_3_u09_r16_network.node[2].content_store 	decision_ratio[2] 	0.0089162633817275
scalar tree_4_3_u09_r16_network.node[3].core_layer 	interests[3] 	34408
scalar tree_4_3_u09_r16_network.node[3].core_layer 	data[3] 	33927
scalar tree_4_3_u09_r16_network.node[3].content_store 	p_hit[3] 	0.013950244129272
scalar tree_4_3_u09_r16_network.node[3].content_store 	hits[3] 	480
scalar tree_4_3_u09_r16_network.node[3].content_store 	misses[3] 	33928
scalar tree_4_3_u09_r16_network.node[3].content_store 	decision_yes[3] 	353
scalar tree_4_3_u09_r16_network.node[3].content_store 	decision_no[3] 	33574
scalar tree_4_3_u09_r16_network.node[3].content_store 	decision_ratio[3] 	0.01040469242786
scalar tree_4_3_u09_r16_network.node[4].core_layer 	interests[4] 	44499
scalar tree_4_3_u09_r16_network.node[4].core_layer 	data[4] 	42858
scalar tree_4_3_u09_r16_network.node[4].content_store 	p_hit[4] 	0.036877233196252
scalar tree_4_3_u09_r16_network.node[4].content_store 	hits[4] 	1641
scalar tree_4_3_u09_r16_network.node[4].content_store 	misses[4] 	42858
scalar tree_4_3_u09_r16_network.node[4].content_store 	decision_yes[4] 	795
scalar tree_4_3_u09_r16_network.node[4].content_store 	decision_no[4] 	42063
scalar tree_4_3_u09_r16_network.node[4].content_store 	decision_ratio[4] 	0.01854962900742
scalar tree_4_3_u09_r16_network.node[5].core_layer 	interests[5] 	26185
scalar tree_4_3_u09_r16_network.node[5].core_layer 	data[5] 	25307
scalar tree_4_3_u09_r16_network.node[5].content_store 	p_hit[5] 	0.033492457513844
scalar tree_4_3_u09_r16_network.node[5].content_store 	hits[5] 	877
scalar tree_4_3_u09_r16_network.node[5].content_store 	misses[5] 	25308
scalar tree_4_3_u09_r16_network.node[5].content_store 	decision_yes[5] 	607
scalar tree_4_3_u09_r16_network.node[5].content_store 	decision_no[5] 	24700
scalar tree_4_3_u09_r16_network.node[5].content_store 	decision_ratio[5] 	0.023985458568775
scalar tree_4_3_u09_r16_network.node[6].core_layer 	interests[6] 	8779
scalar tree_4_3_u09_r16_network.node[6].core_layer 	data[6] 	8515
scalar tree_4_3_u09_r16_network.node[6].content_store 	p_hit[6] 	0.030071762159699
scalar tree_4_3_u09_r16_network.node[6].content_store 	hits[6] 	264
scalar tree_4_3_u09_r16_network.node[6].content_store 	misses[6] 	8515
scalar tree_4_3_u09_r16_network.node[6].content_store 	decision_yes[6] 	236
scalar tree_4_3_u09_r16_network.node[6].content_store 	decision_no[6] 	8279
scalar tree_4_3_u09_r16_network.node[6].content_store 	decision_ratio[6] 	0.027715795654727
scalar tree_4_3_u09_r16_network.node[7].core_layer 	interests[7] 	43766
scalar tree_4_3_u09_r16_network.node[7].core_layer 	data[7] 	42167
scalar tree_4_3_u09_r16_network.node[7].content_store 	p_hit[7] 	0.03653520998035
scalar tree_4_3_u09_r16_network.node[7].content_store 	hits[7] 	1599
scalar tree_4_3_u09_r16_network.node[7].content_store 	misses[7] 	42167
scalar tree_4_3_u09_r16_network.node[7].content_store 	decision_yes[7] 	827
scalar tree_4_3_u09_r16_network.node[7].content_store 	decision_no[7] 	41340
scalar tree_4_3_u09_r16_network.node[7].content_store 	decision_ratio[7] 	0.019612493181872
scalar tree_4_3_u09_r16_network.node[8].core_layer 	interests[8] 	26524
scalar tree_4_3_u09_r16_network.node[8].core_layer 	data[8] 	25802
scalar tree_4_3_u09_r16_network.node[8].content_store 	p_hit[8] 	0.027182928668376
scalar tree_4_3_u09_r16_network.node[8].content_store 	hits[8] 	721
scalar tree_4_3_u09_r16_network.node[8].content_store 	misses[8] 	25803
scalar tree_4_3_u09_r16_network.node[8].content_store 	decision_yes[8] 	251
scalar tree_4_3_u09_r16_network.node[8].content_store 	decision_no[8] 	25551
scalar tree_4_3_u09_r16_network.node[8].content_store 	decision_ratio[8] 	0.0097279280675917
scalar tree_4_3_u09_r16_network.node[9].core_layer 	interests[9] 	8943
scalar tree_4_3_u09_r16_network.node[9].core_layer 	data[9] 	8703
scalar tree_4_3_u09_r16_network.node[9].content_store 	p_hit[9] 	0.026836632002684
scalar tree_4_3_u09_r16_network.node[9].content_store 	hits[9] 	240
scalar tree_4_3_u09_r16_network.node[9].content_store 	misses[9] 	8703
scalar tree_4_3_u09_r16_network.node[9].content_store 	decision_yes[9] 	159
scalar tree_4_3_u09_r16_network.node[9].content_store 	decision_no[9] 	8544
scalar tree_4_3_u09_r16_network.node[9].content_store 	decision_ratio[9] 	0.018269562219924
scalar tree_4_3_u09_r16_network.node[10].core_layer 	interests[10] 	43791
scalar tree_4_3_u09_r16_network.node[10].core_layer 	data[10] 	42091
scalar tree_4_3_u09_r16_network.node[10].content_store 	p_hit[10] 	0.038752255029572
scalar tree_4_3_u09_r16_network.node[10].content_store 	hits[10] 	1697
scalar tree_4_3_u09_r16_network.node[10].content_store 	misses[10] 	42094
scalar tree_4_3_u09_r16_network.node[10].content_store 	decision_yes[10] 	768
scalar tree_4_3_u09_r16_network.node[10].content_store 	decision_no[10] 	41323
scalar tree_4_3_u09_r16_network.node[10].content_store 	decision_ratio[10] 	0.018246180893778
scalar tree_4_3_u09_r16_network.node[11].core_layer 	interests[11] 	26545
scalar tree_4_3_u09_r16_network.node[11].core_layer 	data[11] 	25882
scalar tree_4_3_u09_r16_network.node[11].content_store 	p_hit[11] 	0.024938783198342
scalar tree_4_3_u09_r16_network.node[11].content_store 	hits[11] 	662
scalar tree_4_3_u09_r16_network.node[11].content_store 	misses[11] 	25883
scalar tree_4_3_u09_r16_network.node[11].content_store 	decision_yes[11] 	309
scalar tree_4_3_u09_r16_network.node[11].content_store 	decision_no[11] 	25573
scalar tree_4_3_u09_r16_network.node[11].content_store 	decision_ratio[11] 	0.011938799165443
scalar tree_4_3_u09_r16_network.node[12].core_layer 	interests[12] 	8720
scalar tree_4_3_u09_r16_network.node[12].core_layer 	data[12] 	8525
scalar tree_4_3_u09_r16_network.node[12].content_store 	p_hit[12] 	0.022362385321101
scalar tree_4_3_u09_r16_network.node[12].content_store 	hits[12] 	195
scalar tree_4_3_u09_r16_network.node[12].content_store 	misses[12] 	8525
scalar tree_4_3_u09_r16_network.node[12].content_store 	decision_yes[12] 	171
scalar tree_4_3_u09_r16_network.node[12].content_store 	decision_no[12] 	8354
scalar tree_4_3_u09_r16_network.node[12].content_store 	decision_ratio[12] 	0.020058651026393
scalar tree_4_3_u09_r16_network.node[13].core_layer 	interests[13] 	12073
scalar tree_4_3_u09_r16_network.node[13].core_layer 	data[13] 	8929
scalar tree_4_3_u09_r16_network.node[13].content_store 	p_hit[13] 	0.26041580385985
scalar tree_4_3_u09_r16_network.node[13].content_store 	hits[13] 	3144
scalar tree_4_3_u09_r16_network.node[13].content_store 	misses[13] 	8929
scalar tree_4_3_u09_r16_network.node[13].content_store 	decision_yes[13] 	337
scalar tree_4_3_u09_r16_network.node[13].content_store 	decision_no[13] 	8592
scalar tree_4_3_u09_r16_network.node[13].content_store 	decision_ratio[13] 	0.037742188374958
scalar tree_4_3_u09_r16_network.node[14].core_layer 	interests[14] 	12110
scalar tree_4_3_u09_r16_network.node[14].core_layer 	data[14] 	8860
scalar tree_4_3_u09_r16_network.node[14].content_store 	p_hit[14] 	0.26837324525186
scalar tree_4_3_u09_r16_network.node[14].content_store 	hits[14] 	3250
scalar tree_4_3_u09_r16_network.node[14].content_store 	misses[14] 	8860
scalar tree_4_3_u09_r16_network.node[14].content_store 	decision_yes[14] 	340
scalar tree_4_3_u09_r16_network.node[14].content_store 	decision_no[14] 	8520
scalar tree_4_3_u09_r16_network.node[14].content_store 	decision_ratio[14] 	0.038374717832957
scalar tree_4_3_u09_r16_network.node[15].core_layer 	interests[15] 	12078
scalar tree_4_3_u09_r16_network.node[15].core_layer 	data[15] 	8971
scalar tree_4_3_u09_r16_network.node[15].content_store 	p_hit[15] 	0.25732737208147
scalar tree_4_3_u09_r16_network.node[15].content_store 	hits[15] 	3108
scalar tree_4_3_u09_r16_network.node[15].content_store 	misses[15] 	8970
scalar tree_4_3_u09_r16_network.node[15].content_store 	decision_yes[15] 	296
scalar tree_4_3_u09_r16_network.node[15].content_store 	decision_no[15] 	8675
scalar tree_4_3_u09_r16_network.node[15].content_store 	decision_ratio[15] 	0.032995206777394
scalar tree_4_3_u09_r16_network.node[16].core_layer 	interests[16] 	12263
scalar tree_4_3_u09_r16_network.node[16].core_layer 	data[16] 	8981
scalar tree_4_3_u09_r16_network.node[16].content_store 	p_hit[16] 	0.26763434722335
scalar tree_4_3_u09_r16_network.node[16].content_store 	hits[16] 	3282
scalar tree_4_3_u09_r16_network.node[16].content_store 	misses[16] 	8981
scalar tree_4_3_u09_r16_network.node[16].content_store 	decision_yes[16] 	331
scalar tree_4_3_u09_r16_network.node[16].content_store 	decision_no[16] 	8650
scalar tree_4_3_u09_r16_network.node[16].content_store 	decision_ratio[16] 	0.036855584010689
scalar tree_4_3_u09_r16_network.node[17].core_layer 	interests[17] 	11763
scalar tree_4_3_u09_r16_network.node[17].core_layer 	data[17] 	8621
scalar tree_4_3_u09_r16_network.node[17].content_store 	p_hit[17] 	0.26693870611239
scalar tree_4_3_u09_r16_network.node[17].content_store 	hits[17] 	3140
scalar tree_4_3_u09_r16_network.node[17].content_store 	misses[17] 	8623
scalar tree_4_3_u09_r16_network.node[17].content_store 	decision_yes[17] 	294
scalar tree_4_3_u09_r16_network.node[17].content_store 	decision_no[17] 	8327
scalar tree_4_3_u09_r16_network.node[17].content_store 	decision_ratio[17] 	0.034102772300197
scalar tree_4_3_u09_r16_network.node[18].core_layer 	interests[18] 	11998
scalar tree_4_3_u09_r16_network.node[18].core_layer 	data[18] 	8776
scalar tree_4_3_u09_r16_network.node[18].content_store 	p_hit[18] 	0.26854475745958
scalar tree_4_3_u09_r16_network.node[18].content_store 	hits[18] 	3222
scalar tree_4_3_u09_r16_network.node[18].content_store 	misses[18] 	8776
scalar tree_4_3_u09_r16_network.node[18].content_store 	decision_yes[18] 	296
scalar tree_4_3_u09_r16_network.node[18].content_store 	decision_no[18] 	8480
scalar tree_4_3_u09_r16_network.node[18].content_store 	decision_ratio[18] 	0.033728350045579
scalar tree_4_3_u09_r16_network.node[19].core_layer 	interests[19] 	11892
scalar tree_4_3_u09_r16_network.node[19].core_layer 	data[19] 	8759
scalar tree_4_3_u09_r16_network.node[19].content_store 	p_hit[19] 	0.26345442314161
scalar tree_4_3_u09_r16_network.node[19].content_store 	hits[19] 	3133
scalar tree_4_3_u09_r16_network.node[19].content_store 	misses[19] 	8759
scalar tree_4_3_u09_r16_network.node[19].content_store 	decision_yes[19] 	337
scalar tree_4_3_u09_r16_network.node[19].content_store 	decision_no[19] 	8422
scalar tree_4_3_u09_r16_network.node[19].content_store 	decision_ratio[19] 	0.038474711725083
scalar tree_4_3_u09_r16_network.node[20].core_layer 	interests[20] 	11960
scalar tree_4_3_u09_r16_network.node[20].core_layer 	data[20] 	8787
scalar tree_4_3_u09_r16_network.node[20].content_store 	p_hit[20] 	0.26530100334448
scalar tree_4_3_u09_r16_network.node[20].content_store 	hits[20] 	3173
scalar tree_4_3_u09_r16_network.node[20].content_store 	misses[20] 	8787
scalar tree_4_3_u09_r16_network.node[20].content_store 	decision_yes[20] 	287
scalar tree_4_3_u09_r16_network.node[20].content_store 	decision_no[20] 	8500
scalar tree_4_3_u09_r16_network.node[20].content_store 	decision_ratio[20] 	0.032661886878343
scalar tree_4_3_u09_r16_network.node[21].core_layer 	interests[21] 	12045
scalar tree_4_3_u09_r16_network.node[21].core_layer 	data[21] 	8779
scalar tree_4_3_u09_r16_network.node[21].content_store 	p_hit[21] 	0.27106683271067
scalar tree_4_3_u09_r16_network.node[21].content_store 	hits[21] 	3265
scalar tree_4_3_u09_r16_network.node[21].content_store 	misses[21] 	8780
scalar tree_4_3_u09_r16_network.node[21].content_store 	decision_yes[21] 	264
scalar tree_4_3_u09_r16_network.node[21].content_store 	decision_no[21] 	8515
scalar tree_4_3_u09_r16_network.node[21].content_store 	decision_ratio[21] 	0.030071762159699
scalar tree_4_3_u09_r16_network.node[22].core_layer 	interests[22] 	11998
scalar tree_4_3_u09_r16_network.node[22].core_layer 	data[22] 	8742
scalar tree_4_3_u09_r16_network.node[22].content_store 	p_hit[22] 	0.27137856309385
scalar tree_4_3_u09_r16_network.node[22].content_store 	hits[22] 	3256
scalar tree_4_3_u09_r16_network.node[22].content_store 	misses[22] 	8742
scalar tree_4_3_u09_r16_network.node[22].content_store 	decision_yes[22] 	348
scalar tree_4_3_u09_r16_network.node[22].content_store 	decision_no[22] 	8394
scalar tree_4_3_u09_r16_network.node[22].content_store 	decision_ratio[22] 	0.0398078242965
scalar tree_4_3_u09_r16_network.node[23].core_layer 	interests[23] 	11753
scalar tree_4_3_u09_r16_network.node[23].core_layer 	data[23] 	8665
scalar tree_4_3_u09_r16_network.node[23].content_store 	p_hit[23] 	0.26274142772058
scalar tree_4_3_u09_r16_network.node[23].content_store 	hits[23] 	3088
scalar tree_4_3_u09_r16_network.node[23].content_store 	misses[23] 	8665
scalar tree_4_3_u09_r16_network.node[23].content_store 	decision_yes[23] 	299
scalar tree_4_3_u09_r16_network.node[23].content_store 	decision_no[23] 	8366
scalar tree_4_3_u09_r16_network.node[23].content_store 	decision_ratio[23] 	0.034506635891518
scalar tree_4_3_u09_r16_network.node[24].core_layer 	interests[24] 	11852
scalar tree_4_3_u09_r16_network.node[24].core_layer 	data[24] 	8701
scalar tree_4_3_u09_r16_network.node[24].content_store 	p_hit[24] 	0.26586230172123
scalar tree_4_3_u09_r16_network.node[24].content_store 	hits[24] 	3151
scalar tree_4_3_u09_r16_network.node[24].content_store 	misses[24] 	8701
scalar tree_4_3_u09_r16_network.node[24].content_store 	decision_yes[24] 	334
scalar tree_4_3_u09_r16_network.node[24].content_store 	decision_no[24] 	8367
scalar tree_4_3_u09_r16_network.node[24].content_store 	decision_ratio[24] 	0.038386392368693
scalar tree_4_3_u09_r16_network.node[25].core_layer 	interests[25] 	12022
scalar tree_4_3_u09_r16_network.node[25].core_layer 	data[25] 	8835
scalar tree_4_3_u09_r16_network.node[25].content_store 	p_hit[25] 	0.26509732157711
scalar tree_4_3_u09_r16_network.node[25].content_store 	hits[25] 	3187
scalar tree_4_3_u09_r16_network.node[25].content_store 	misses[25] 	8835
scalar tree_4_3_u09_r16_network.node[25].content_store 	decision_yes[25] 	324
scalar tree_4_3_u09_r16_network.node[25].content_store 	decision_no[25] 	8511
scalar tree_4_3_u09_r16_network.node[25].content_store 	decision_ratio[25] 	0.036672325976231
scalar tree_4_3_u09_r16_network.node[26].core_layer 	interests[26] 	12148
scalar tree_4_3_u09_r16_network.node[26].core_layer 	data[26] 	8901
scalar tree_4_3_u09_r16_network.node[26].content_store 	p_hit[26] 	0.26728679618044
scalar tree_4_3_u09_r16_network.node[26].content_store 	hits[26] 	3247
scalar tree_4_3_u09_r16_network.node[26].content_store 	misses[26] 	8901
scalar tree_4_3_u09_r16_network.node[26].content_store 	decision_yes[26] 	233
scalar tree_4_3_u09_r16_network.node[26].content_store 	decision_no[26] 	8668
scalar tree_4_3_u09_r16_network.node[26].content_store 	decision_ratio[26] 	0.026176834063588
scalar tree_4_3_u09_r16_network.node[27].core_layer 	interests[27] 	11987
scalar tree_4_3_u09_r16_network.node[27].core_layer 	data[27] 	8860
scalar tree_4_3_u09_r16_network.node[27].content_store 	p_hit[27] 	0.26086593809961
scalar tree_4_3_u09_r16_network.node[27].content_store 	hits[27] 	3127
scalar tree_4_3_u09_r16_network.node[27].content_store 	misses[27] 	8860
scalar tree_4_3_u09_r16_network.node[27].content_store 	decision_yes[27] 	244
scalar tree_4_3_u09_r16_network.node[27].content_store 	decision_no[27] 	8616
scalar tree_4_3_u09_r16_network.node[27].content_store 	decision_ratio[27] 	0.027539503386005
scalar tree_4_3_u09_r16_network.node[28].core_layer 	interests[28] 	11922
scalar tree_4_3_u09_r16_network.node[28].core_layer 	data[28] 	8823
scalar tree_4_3_u09_r16_network.node[28].content_store 	p_hit[28] 	0.25985572890455
scalar tree_4_3_u09_r16_network.node[28].content_store 	hits[28] 	3098
scalar tree_4_3_u09_r16_network.node[28].content_store 	misses[28] 	8824
scalar tree_4_3_u09_r16_network.node[28].content_store 	decision_yes[28] 	294
scalar tree_4_3_u09_r16_network.node[28].content_store 	decision_no[28] 	8529
scalar tree_4_3_u09_r16_network.node[28].content_store 	decision_ratio[28] 	0.033321999319959
scalar tree_4_3_u09_r16_network.node[29].core_layer 	interests[29] 	11850
scalar tree_4_3_u09_r16_network.node[29].core_layer 	data[29] 	8763
scalar tree_4_3_u09_r16_network.node[29].content_store 	p_hit[29] 	0.26050632911392
scalar tree_4_3_u09_r16_network.node[29].content_store 	hits[29] 	3087
scalar tree_4_3_u09_r16_network.node[29].content_store 	misses[29] 	8763
scalar tree_4_3_u09_r16_network.node[29].content_store 	decision_yes[29] 	244
scalar tree_4_3_u09_r16_network.node[29].content_store 	decision_no[29] 	8519
scalar tree_4_3_u09_r16_network.node[29].content_store 	decision_ratio[29] 	0.027844345543764
scalar tree_4_3_u09_r16_network.node[30].core_layer 	interests[30] 	12153
scalar tree_4_3_u09_r16_network.node[30].core_layer 	data[30] 	8943
scalar tree_4_3_u09_r16_network.node[30].content_store 	p_hit[30] 	0.26413231300913
scalar tree_4_3_u09_r16_network.node[30].content_store 	hits[30] 	3210
scalar tree_4_3_u09_r16_network.node[30].content_store 	misses[30] 	8943
scalar tree_4_3_u09_r16_network.node[30].content_store 	decision_yes[30] 	240
scalar tree_4_3_u09_r16_network.node[30].content_store 	decision_no[30] 	8703
scalar tree_4_3_u09_r16_network.node[30].content_store 	decision_ratio[30] 	0.026836632002684
scalar tree_4_3_u09_r16_network.node[31].core_layer 	interests[31] 	11956
scalar tree_4_3_u09_r16_network.node[31].core_layer 	data[31] 	8738
scalar tree_4_3_u09_r16_network.node[31].content_store 	p_hit[31] 	0.26915356306457
scalar tree_4_3_u09_r16_network.node[31].content_store 	hits[31] 	3218
scalar tree_4_3_u09_r16_network.node[31].content_store 	misses[31] 	8738
scalar tree_4_3_u09_r16_network.node[31].content_store 	decision_yes[31] 	364
scalar tree_4_3_u09_r16_network.node[31].content_store 	decision_no[31] 	8374
scalar tree_4_3_u09_r16_network.node[31].content_store 	decision_ratio[31] 	0.041657129777981
scalar tree_4_3_u09_r16_network.node[32].core_layer 	interests[32] 	11962
scalar tree_4_3_u09_r16_network.node[32].core_layer 	data[32] 	8724
scalar tree_4_3_u09_r16_network.node[32].content_store 	p_hit[32] 	0.27069051997994
scalar tree_4_3_u09_r16_network.node[32].content_store 	hits[32] 	3238
scalar tree_4_3_u09_r16_network.node[32].content_store 	misses[32] 	8724
scalar tree_4_3_u09_r16_network.node[32].content_store 	decision_yes[32] 	332
scalar tree_4_3_u09_r16_network.node[32].content_store 	decision_no[32] 	8392
scalar tree_4_3_u09_r16_network.node[32].content_store 	decision_ratio[32] 	0.038055937643283
scalar tree_4_3_u09_r16_network.node[33].core_layer 	interests[33] 	11936
scalar tree_4_3_u09_r16_network.node[33].core_layer 	data[33] 	8727
scalar tree_4_3_u09_r16_network.node[33].content_store 	p_hit[33] 	0.26876675603217
scalar tree_4_3_u09_r16_network.node[33].content_store 	hits[33] 	3208
scalar tree_4_3_u09_r16_network.node[33].content_store 	misses[33] 	8728
scalar tree_4_3_u09_r16_network.node[33].content_store 	decision_yes[33] 	326
scalar tree_4_3_u09_r16_network.node[33].content_store 	decision_no[33] 	8401
scalar tree_4_3_u09_r16_network.node[33].content_store 	decision_ratio[33] 	0.037355334020855
scalar tree_4_3_u09_r16_network.node[34].core_layer 	interests[34] 	12009
scalar tree_4_3_u09_r16_network.node[34].core_layer 	data[34] 	8843
scalar tree_4_3_u09_r16_network.node[34].content_store 	p_hit[34] 	0.26363560662836
scalar tree_4_3_u09_r16_network.node[34].content_store 	hits[34] 	3166
scalar tree_4_3_u09_r16_network.node[34].content_store 	misses[34] 	8843
scalar tree_4_3_u09_r16_network.node[34].content_store 	decision_yes[34] 	334
scalar tree_4_3_u09_r16_network.node[34].content_store 	decision_no[34] 	8509
scalar tree_4_3_u09_r16_network.node[34].content_store 	decision_ratio[34] 	0.037769987560783
scalar tree_4_3_u09_r16_network.node[35].core_layer 	interests[35] 	12099
scalar tree_4_3_u09_r16_network.node[35].core_layer 	data[35] 	8803
scalar tree_4_3_u09_r16_network.node[35].content_store 	p_hit[35] 	0.27233655674023
scalar tree_4_3_u09_r16_network.node[35].content_store 	hits[35] 	3295
scalar tree_4_3_u09_r16_network.node[35].content_store 	misses[35] 	8804
scalar tree_4_3_u09_r16_network.node[35].content_store 	decision_yes[35] 	210
scalar tree_4_3_u09_r16_network.node[35].content_store 	decision_no[35] 	8593
scalar tree_4_3_u09_r16_network.node[35].content_store 	decision_ratio[35] 	0.023855503805521
scalar tree_4_3_u09_r16_network.node[36].core_layer 	interests[36] 	12049
scalar tree_4_3_u09_r16_network.node[36].core_layer 	data[36] 	8773
scalar tree_4_3_u09_r16_network.node[36].content_store 	p_hit[36] 	0.27188978338451
scalar tree_4_3_u09_r16_network.node[36].content_store 	hits[36] 	3276
scalar tree_4_3_u09_r16_network.node[36].content_store 	misses[36] 	8773
scalar tree_4_3_u09_r16_network.node[36].content_store 	decision_yes[36] 	228
scalar tree_4_3_u09_r16_network.node[36].content_store 	decision_no[36] 	8545
scalar tree_4_3_u09_r16_network.node[36].content_store 	decision_ratio[36] 	0.025988829362818
scalar tree_4_3_u09_r16_network.node[37].core_layer 	interests[37] 	11894
scalar tree_4_3_u09_r16_network.node[37].core_layer 	data[37] 	8758
scalar tree_4_3_u09_r16_network.node[37].content_store 	p_hit[37] 	0.26366235076509
scalar tree_4_3_u09_r16_network.node[37].content_store 	hits[37] 	3136
scalar tree_4_3_u09_r16_network.node[37].content_store 	misses[37] 	8758
scalar tree_4_3_u09_r16_network.node[37].content_store 	decision_yes[37] 	341
scalar tree_4_3_u09_r16_network.node[37].content_store 	decision_no[37] 	8417
scalar tree_4_3_u09_r16_network.node[37].content_store 	decision_ratio[37] 	0.038935830098196
scalar tree_4_3_u09_r16_network.node[38].core_layer 	interests[38] 	12147
scalar tree_4_3_u09_r16_network.node[38].core_layer 	data[38] 	8968
scalar tree_4_3_u09_r16_network.node[38].content_store 	p_hit[38] 	0.26171071046349
scalar tree_4_3_u09_r16_network.node[38].content_store 	hits[38] 	3179
scalar tree_4_3_u09_r16_network.node[38].content_store 	misses[38] 	8968
scalar tree_4_3_u09_r16_network.node[38].content_store 	decision_yes[38] 	224
scalar tree_4_3_u09_r16_network.node[38].content_store 	decision_no[38] 	8744
scalar tree_4_3_u09_r16_network.node[38].content_store 	decision_ratio[38] 	0.024977698483497
scalar tree_4_3_u09_r16_network.node[39].core_layer 	interests[39] 	11986
scalar tree_4_3_u09_r16_network.node[39].core_layer 	data[39] 	8720
scalar tree_4_3_u09_r16_network.node[39].content_store 	p_hit[39] 	0.27248456532621
scalar tree_4_3_u09_r16_network.node[39].content_store 	hits[39] 	3266
scalar tree_4_3_u09_r16_network.node[39].content_store 	misses[39] 	8720
scalar tree_4_3_u09_r16_network.node[39].content_store 	decision_yes[39] 	195
scalar tree_4_3_u09_r16_network.node[39].content_store 	decision_no[39] 	8525
scalar tree_4_3_u09_r16_network.node[39].content_store 	decision_ratio[39] 	0.022362385321101
scalar tree_4_3_u09_r16_network.client[13] 	hdistance[13] 	2.8441149672824
scalar tree_4_3_u09_r16_network.client[13] 	downloads[13] 	12073
scalar tree_4_3_u09_r16_network.client[13] 	avg_time[13] 	0.004302158861
scalar tree_4_3_u09_r16_network.client[14] 	hdistance[14] 	2.8086705202312
scalar tree_4_3_u09_r16_network.client[14] 	downloads[14] 	12110
scalar tree_4_3_u09_r16_network.client[14] 	avg_time[14] 	0.004250068006
scalar tree_4_3_u09_r16_network.client[15] 	hdistance[15] 	2.8662140905704
scalar tree_4_3_u09_r16_network.client[15] 	downloads[15] 	12079
scalar tree_4_3_u09_r16_network.client[15] 	avg_time[15] 	0.004334461749
scalar tree_4_3_u09_r16_network.client[16] 	hdistance[16] 	2.8100790997309
scalar tree_4_3_u09_r16_network.client[16] 	downloads[16] 	12263
scalar tree_4_3_u09_r16_network.client[16] 	avg_time[16] 	0.004255562452
scalar tree_4_3_u09_r16_network.client[17] 	hdistance[17] 	2.8165972281269
scalar tree_4_3_u09_r16_network.client[17] 	downloads[17] 	11761
scalar tree_4_3_u09_r16_network.client[17] 	avg_time[17] 	0.004265256774
scalar tree_4_3_u09_r16_network.client[18] 	hdistance[18] 	2.8103850641774
scalar tree_4_3_u09_r16_network.client[18] 	downloads[18] 	11998
scalar tree_4_3_u09_r16_network.client[18] 	avg_time[18] 	0.004255167772
scalar tree_4_3_u09_r16_network.client[19] 	hdistance[19] 	2.8279515640767
scalar tree_4_3_u09_r16_network.client[19] 	downloads[19] 	11892
scalar tree_4_3_u09_r16_network.client[19] 	avg_time[19] 	0.004279512681
scalar tree_4_3_u09_r16_network.client[20] 	hdistance[20] 	2.8265050167224
scalar tree_4_3_u09_r16_network.client[20] 	downloads[20] 	11960
scalar tree_4_3_u09_r16_network.client[20] 	avg_time[20] 	0.004277923428
scalar tree_4_3_u09_r16_network.client[21] 	hdistance[21] 	2.8031384921953
scalar tree_4_3_u09_r16_network.client[21] 	downloads[21] 	12044
scalar tree_4_3_u09_r16_network.client[21] 	avg_time[21] 	0.004246525947
scalar tree_4_3_u09_r16_network.client[22] 	hdistance[22] 	2.7924654109018
scalar tree_4_3_u09_r16_network.client[22] 	downloads[22] 	11998
scalar tree_4_3_u09_r16_network.client[22] 	avg_time[22] 	0.004228587121
scalar tree_4_3_u09_r16_network.client[23] 	hdistance[23] 	2.8377435548371
scalar tree_4_3_u09_r16_network.client[23] 	downloads[23] 	11753
scalar tree_4_3_u09_r16_network.client[23] 	avg_time[23] 	0.004292177793
scalar tree_4_3_u09_r16_network.client[24] 	hdistance[24] 	2.8162335470807
scalar tree_4_3_u09_r16_network.client[24] 	downloads[24] 	11852
scalar tree_4_3_u09_r16_network.client[24] 	avg_time[24] 	0.004262399996
scalar tree_4_3_u09_r16_network.client[25] 	hdistance[25] 	2.8259025120612
scalar tree_4_3_u09_r16_network.client[25] 	downloads[25] 	12022
scalar tree_4_3_u09_r16_network.client[25] 	avg_time[25] 	0.004276490088
scalar tree_4_3_u09_r16_network.client[26] 	hdistance[26] 	2.852568324004
scalar tree_4_3_u09_r16_network.client[26] 	downloads[26] 	12148
scalar tree_4_3_u09_r16_network.client[26] 	avg_time[26] 	0.004304409183
scalar tree_4_3_u09_r16_network.client[27] 	hdistance[27] 	2.8746141653458
scalar tree_4_3_u09_r16_network.client[27] 	downloads[27] 	11987
scalar tree_4_3_u09_r16_network.client[27] 	avg_time[27] 	0.004339364629
scalar tree_4_3_u09_r16_network.client[28] 	hdistance[28] 	2.8513547521181
scalar tree_4_3_u09_r16_network.client[28] 	downloads[28] 	11921
scalar tree_4_3_u09_r16_network.client[28] 	avg_time[28] 	0.004314554102
scalar tree_4_3_u09_r16_network.client[29] 	hdistance[29] 	2.8769620253165
scalar tree_4_3_u09_r16_network.client[29] 	downloads[29] 	11850
scalar tree_4_3_u09_r16_network.client[29] 	avg_time[29] 	0.004341760003
scalar tree_4_3_u09_r16_network.client[30] 	hdistance[30] 	2.851806138402
scalar tree_4_3_u09_r16_network.client[30] 	downloads[30] 	12153
scalar tree_4_3_u09_r16_network.client[30] 	avg_time[30] 	0.004310043862
scalar tree_4_3_u09_r16_network.client[31] 	hdistance[31] 	2.7975911676146
scalar tree_4_3_u09_r16_network.client[31] 	downloads[31] 	11956
scalar tree_4_3_u09_r16_network.client[31] 	avg_time[31] 	0.004235360047
scalar tree_4_3_u09_r16_network.client[32] 	hdistance[32] 	2.8021233907373
scalar tree_4_3_u09_r16_network.client[32] 	downloads[32] 	11962
scalar tree_4_3_u09_r16_network.client[32] 	avg_time[32] 	0.004239501492
scalar tree_4_3_u09_r16_network.client[33] 	hdistance[33] 	2.8099706744868
scalar tree_4_3_u09_r16_network.client[33] 	downloads[33] 	11935
scalar tree_4_3_u09_r16_network.client[33] 	avg_time[33] 	0.004252531587
scalar tree_4_3_u09_r16_network.client[34] 	hdistance[34] 	2.8272129236406
scalar tree_4_3_u09_r16_network.client[34] 	downloads[34] 	12009
scalar tree_4_3_u09_r16_network.client[34] 	avg_time[34] 	0.004278787886
scalar tree_4_3_u09_r16_network.client[35] 	hdistance[35] 	2.8333608860969
scalar tree_4_3_u09_r16_network.client[35] 	downloads[35] 	12098
scalar tree_4_3_u09_r16_network.client[35] 	avg_time[35] 	0.004278224797
scalar tree_4_3_u09_r16_network.client[36] 	hdistance[36] 	2.833596149058
scalar tree_4_3_u09_r16_network.client[36] 	downloads[36] 	12049
scalar tree_4_3_u09_r16_network.client[36] 	avg_time[36] 	0.004276534416
scalar tree_4_3_u09_r16_network.client[37] 	hdistance[37] 	2.830839078527
scalar tree_4_3_u09_r16_network.client[37] 	downloads[37] 	11894
scalar tree_4_3_u09_r16_network.client[37] 	avg_time[37] 	0.00428148199
scalar tree_4_3_u09_r16_network.client[38] 	hdistance[38] 	2.8733020498889
scalar tree_4_3_u09_r16_network.client[38] 	downloads[38] 	12147
scalar tree_4_3_u09_r16_network.client[38] 	avg_time[38] 	0.00433950465
scalar tree_4_3_u09_r16_network.client[39] 	hdistance[39] 	2.8241281495078
scalar tree_4_3_u09_r16_network.client[39] 	downloads[39] 	11986
scalar tree_4_3_u09_r16_network.client[39] 	avg_time[39] 	0.004271480402
