version 2
run General-184-20160820-11:38:16-856
attr a 0.9
attr cd lcd
attr configname General
attr cr lru
attr datetime 20160820-11:38:16
attr experiment General
attr fsize 1
attr inifile hw5115/scenario_A/SPR-LCD.ini
attr iterationvars "$name=tree_4_3, $un=09, $rep=5, $cd=lcd, $cr=lru, $fsize=1, $a=0.9, $sl=spr, $ttl=1000, $variance=0.05"
attr iterationvars2 "$name=tree_4_3, $un=09, $rep=5, $cd=lcd, $cr=lru, $fsize=1, $a=0.9, $sl=spr, $ttl=1000, $variance=0.05, $repetition=0"
attr measurement "$name=tree_4_3, $un=09, $rep=5, $cd=lcd, $cr=lru, $fsize=1, $a=0.9, $sl=spr, $ttl=1000, $variance=0.05"
attr name tree_4_3
attr network networks.${name}_u${un}_r${rep}_network
attr processid 856
attr rep 5
attr repetition 0
attr replication #0
attr resultdir results
attr runnumber 184
attr seedset 5
attr sl spr
attr ttl 1000
attr un 09
attr variance 0.05

scalar . 	a 	0.9
scalar . 	fsize 	1
scalar . 	rep 	5
scalar . 	ttl 	1000
scalar . 	un 	09
scalar . 	variance 	0.05
scalar tree_4_3_u09_r5_network.content_distribution 	repo-0 	0
scalar tree_4_3_u09_r5_network.content_distribution 	client-0 	13
scalar tree_4_3_u09_r5_network.content_distribution 	client-1 	14
scalar tree_4_3_u09_r5_network.content_distribution 	client-2 	15
scalar tree_4_3_u09_r5_network.content_distribution 	client-3 	16
scalar tree_4_3_u09_r5_network.content_distribution 	client-4 	17
scalar tree_4_3_u09_r5_network.content_distribution 	client-5 	18
scalar tree_4_3_u09_r5_network.content_distribution 	client-6 	19
scalar tree_4_3_u09_r5_network.content_distribution 	client-7 	20
scalar tree_4_3_u09_r5_network.content_distribution 	client-8 	21
scalar tree_4_3_u09_r5_network.content_distribution 	client-9 	22
scalar tree_4_3_u09_r5_network.content_distribution 	client-10 	23
scalar tree_4_3_u09_r5_network.content_distribution 	client-11 	24
scalar tree_4_3_u09_r5_network.content_distribution 	client-12 	25
scalar tree_4_3_u09_r5_network.content_distribution 	client-13 	26
scalar tree_4_3_u09_r5_network.content_distribution 	client-14 	27
scalar tree_4_3_u09_r5_network.content_distribution 	client-15 	28
scalar tree_4_3_u09_r5_network.content_distribution 	client-16 	29
scalar tree_4_3_u09_r5_network.content_distribution 	client-17 	30
scalar tree_4_3_u09_r5_network.content_distribution 	client-18 	31
scalar tree_4_3_u09_r5_network.content_distribution 	client-19 	32
scalar tree_4_3_u09_r5_network.content_distribution 	client-20 	33
scalar tree_4_3_u09_r5_network.content_distribution 	client-21 	34
scalar tree_4_3_u09_r5_network.content_distribution 	client-22 	35
scalar tree_4_3_u09_r5_network.content_distribution 	client-23 	36
scalar tree_4_3_u09_r5_network.content_distribution 	client-24 	37
scalar tree_4_3_u09_r5_network.content_distribution 	client-25 	38
scalar tree_4_3_u09_r5_network.content_distribution 	client-26 	39
scalar tree_4_3_u09_r5_network.content_distribution 	repo-0_card 	100000
scalar tree_4_3_u09_r5_network.content_distribution 	repo-0_price 	0
scalar tree_4_3_u09_r5_network.statistics 	stabilization_time 	3720.8
scalar tree_4_3_u09_r5_network.statistics 	p_hit 	0.18766561220039
scalar tree_4_3_u09_r5_network.statistics 	interests 	25399.225
scalar tree_4_3_u09_r5_network.statistics 	data 	17311.5
scalar tree_4_3_u09_r5_network.statistics 	hdistance 	2.8296206351321
scalar tree_4_3_u09_r5_network.statistics 	avg_time 	0.004280950825
scalar tree_4_3_u09_r5_network.statistics 	downloads 	323505
scalar tree_4_3_u09_r5_network.statistics 	total_cost 	0
scalar tree_4_3_u09_r5_network.statistics 	total_replicas 	100000
scalar tree_4_3_u09_r5_network.statistics 	inner_hit 	0.31091946028655
scalar tree_4_3_u09_r5_network.node[0].core_layer 	interests[0] 	225155
scalar tree_4_3_u09_r5_network.node[0].core_layer 	repo_load[0] 	222921
scalar tree_4_3_u09_r5_network.node[0].core_layer 	data[0] 	0
scalar tree_4_3_u09_r5_network.node[0].core_layer 	repo_int[0] 	222921
scalar tree_4_3_u09_r5_network.node[0].content_store 	p_hit[0] 	0.0099220536963425
scalar tree_4_3_u09_r5_network.node[0].content_store 	hits[0] 	2234
scalar tree_4_3_u09_r5_network.node[0].content_store 	misses[0] 	222921
scalar tree_4_3_u09_r5_network.node[0].content_store 	decision_yes[0] 	222921
scalar tree_4_3_u09_r5_network.node[0].content_store 	decision_no[0] 	0
scalar tree_4_3_u09_r5_network.node[0].content_store 	decision_ratio[0] 	1
scalar tree_4_3_u09_r5_network.node[1].core_layer 	interests[1] 	152586
scalar tree_4_3_u09_r5_network.node[1].core_layer 	data[1] 	149402
scalar tree_4_3_u09_r5_network.node[1].content_store 	p_hit[1] 	0.020834152543484
scalar tree_4_3_u09_r5_network.node[1].content_store 	hits[1] 	3179
scalar tree_4_3_u09_r5_network.node[1].content_store 	misses[1] 	149407
scalar tree_4_3_u09_r5_network.node[1].content_store 	decision_yes[1] 	1518
scalar tree_4_3_u09_r5_network.node[1].content_store 	decision_no[1] 	147884
scalar tree_4_3_u09_r5_network.node[1].content_store 	decision_ratio[1] 	0.01016050655279
scalar tree_4_3_u09_r5_network.node[2].core_layer 	interests[2] 	68382
scalar tree_4_3_u09_r5_network.node[2].core_layer 	data[2] 	67193
scalar tree_4_3_u09_r5_network.node[2].content_store 	p_hit[2] 	0.017372992892867
scalar tree_4_3_u09_r5_network.node[2].content_store 	hits[2] 	1188
scalar tree_4_3_u09_r5_network.node[2].content_store 	misses[2] 	67194
scalar tree_4_3_u09_r5_network.node[2].content_store 	decision_yes[2] 	629
scalar tree_4_3_u09_r5_network.node[2].content_store 	decision_no[2] 	66564
scalar tree_4_3_u09_r5_network.node[2].content_store 	decision_ratio[2] 	0.0093610941615942
scalar tree_4_3_u09_r5_network.node[3].core_layer 	interests[3] 	8644
scalar tree_4_3_u09_r5_network.node[3].core_layer 	data[3] 	8560
scalar tree_4_3_u09_r5_network.node[3].content_store 	p_hit[3] 	0.009717723276261
scalar tree_4_3_u09_r5_network.node[3].content_store 	hits[3] 	84
scalar tree_4_3_u09_r5_network.node[3].content_store 	misses[3] 	8560
scalar tree_4_3_u09_r5_network.node[3].content_store 	decision_yes[3] 	87
scalar tree_4_3_u09_r5_network.node[3].content_store 	decision_no[3] 	8473
scalar tree_4_3_u09_r5_network.node[3].content_store 	decision_ratio[3] 	0.010163551401869
scalar tree_4_3_u09_r5_network.node[4].core_layer 	interests[4] 	44182
scalar tree_4_3_u09_r5_network.node[4].core_layer 	data[4] 	42506
scalar tree_4_3_u09_r5_network.node[4].content_store 	p_hit[4] 	0.03791136661989
scalar tree_4_3_u09_r5_network.node[4].content_store 	hits[4] 	1675
scalar tree_4_3_u09_r5_network.node[4].content_store 	misses[4] 	42507
scalar tree_4_3_u09_r5_network.node[4].content_store 	decision_yes[4] 	823
scalar tree_4_3_u09_r5_network.node[4].content_store 	decision_no[4] 	41683
scalar tree_4_3_u09_r5_network.node[4].content_store 	decision_ratio[4] 	0.019361972427422
scalar tree_4_3_u09_r5_network.node[5].core_layer 	interests[5] 	26210
scalar tree_4_3_u09_r5_network.node[5].core_layer 	data[5] 	25277
scalar tree_4_3_u09_r5_network.node[5].content_store 	p_hit[5] 	0.035520793590233
scalar tree_4_3_u09_r5_network.node[5].content_store 	hits[5] 	931
scalar tree_4_3_u09_r5_network.node[5].content_store 	misses[5] 	25279
scalar tree_4_3_u09_r5_network.node[5].content_store 	decision_yes[5] 	576
scalar tree_4_3_u09_r5_network.node[5].content_store 	decision_no[5] 	24701
scalar tree_4_3_u09_r5_network.node[5].content_store 	decision_ratio[5] 	0.022787514341101
scalar tree_4_3_u09_r5_network.node[6].core_layer 	interests[6] 	8809
scalar tree_4_3_u09_r5_network.node[6].core_layer 	data[6] 	8543
scalar tree_4_3_u09_r5_network.node[6].content_store 	p_hit[6] 	0.030082869792258
scalar tree_4_3_u09_r5_network.node[6].content_store 	hits[6] 	265
scalar tree_4_3_u09_r5_network.node[6].content_store 	misses[6] 	8544
scalar tree_4_3_u09_r5_network.node[6].content_store 	decision_yes[6] 	249
scalar tree_4_3_u09_r5_network.node[6].content_store 	decision_no[6] 	8294
scalar tree_4_3_u09_r5_network.node[6].content_store 	decision_ratio[6] 	0.029146669788131
scalar tree_4_3_u09_r5_network.node[7].core_layer 	interests[7] 	34775
scalar tree_4_3_u09_r5_network.node[7].core_layer 	data[7] 	33537
scalar tree_4_3_u09_r5_network.node[7].content_store 	p_hit[7] 	0.035571531272466
scalar tree_4_3_u09_r5_network.node[7].content_store 	hits[7] 	1237
scalar tree_4_3_u09_r5_network.node[7].content_store 	misses[7] 	33538
scalar tree_4_3_u09_r5_network.node[7].content_store 	decision_yes[7] 	727
scalar tree_4_3_u09_r5_network.node[7].content_store 	decision_no[7] 	32810
scalar tree_4_3_u09_r5_network.node[7].content_store 	decision_ratio[7] 	0.021677550168471
scalar tree_4_3_u09_r5_network.node[8].core_layer 	interests[8] 	26419
scalar tree_4_3_u09_r5_network.node[8].core_layer 	data[8] 	25635
scalar tree_4_3_u09_r5_network.node[8].content_store 	p_hit[8] 	0.029637760702525
scalar tree_4_3_u09_r5_network.node[8].content_store 	hits[8] 	783
scalar tree_4_3_u09_r5_network.node[8].content_store 	misses[8] 	25636
scalar tree_4_3_u09_r5_network.node[8].content_store 	decision_yes[8] 	417
scalar tree_4_3_u09_r5_network.node[8].content_store 	decision_no[8] 	25218
scalar tree_4_3_u09_r5_network.node[8].content_store 	decision_ratio[8] 	0.016266822703335
scalar tree_4_3_u09_r5_network.node[9].core_layer 	interests[9] 	17790
scalar tree_4_3_u09_r5_network.node[9].core_layer 	data[9] 	17245
scalar tree_4_3_u09_r5_network.node[9].content_store 	p_hit[9] 	0.030635188308038
scalar tree_4_3_u09_r5_network.node[9].content_store 	hits[9] 	545
scalar tree_4_3_u09_r5_network.node[9].content_store 	misses[9] 	17245
scalar tree_4_3_u09_r5_network.node[9].content_store 	decision_yes[9] 	352
scalar tree_4_3_u09_r5_network.node[9].content_store 	decision_no[9] 	16893
scalar tree_4_3_u09_r5_network.node[9].content_store 	decision_ratio[9] 	0.020411713540157
scalar tree_4_3_u09_r5_network.node[10].core_layer 	interests[10] 	44398
scalar tree_4_3_u09_r5_network.node[10].core_layer 	data[10] 	42724
scalar tree_4_3_u09_r5_network.node[10].content_store 	p_hit[10] 	0.037681877562052
scalar tree_4_3_u09_r5_network.node[10].content_store 	hits[10] 	1673
scalar tree_4_3_u09_r5_network.node[10].content_store 	misses[10] 	42725
scalar tree_4_3_u09_r5_network.node[10].content_store 	decision_yes[10] 	804
scalar tree_4_3_u09_r5_network.node[10].content_store 	decision_no[10] 	41920
scalar tree_4_3_u09_r5_network.node[10].content_store 	decision_ratio[10] 	0.018818462690759
scalar tree_4_3_u09_r5_network.node[11].core_layer 	interests[11] 	26296
scalar tree_4_3_u09_r5_network.node[11].core_layer 	data[11] 	25502
scalar tree_4_3_u09_r5_network.node[11].content_store 	p_hit[11] 	0.030194706419227
scalar tree_4_3_u09_r5_network.node[11].content_store 	hits[11] 	794
scalar tree_4_3_u09_r5_network.node[11].content_store 	misses[11] 	25502
scalar tree_4_3_u09_r5_network.node[11].content_store 	decision_yes[11] 	419
scalar tree_4_3_u09_r5_network.node[11].content_store 	decision_no[11] 	25083
scalar tree_4_3_u09_r5_network.node[11].content_store 	decision_ratio[11] 	0.016430083914987
scalar tree_4_3_u09_r5_network.node[12].core_layer 	interests[12] 	8814
scalar tree_4_3_u09_r5_network.node[12].core_layer 	data[12] 	8644
scalar tree_4_3_u09_r5_network.node[12].content_store 	p_hit[12] 	0.019287497163603
scalar tree_4_3_u09_r5_network.node[12].content_store 	hits[12] 	170
scalar tree_4_3_u09_r5_network.node[12].content_store 	misses[12] 	8644
scalar tree_4_3_u09_r5_network.node[12].content_store 	decision_yes[12] 	84
scalar tree_4_3_u09_r5_network.node[12].content_store 	decision_no[12] 	8560
scalar tree_4_3_u09_r5_network.node[12].content_store 	decision_ratio[12] 	0.009717723276261
scalar tree_4_3_u09_r5_network.node[13].core_layer 	interests[13] 	12183
scalar tree_4_3_u09_r5_network.node[13].core_layer 	data[13] 	8921
scalar tree_4_3_u09_r5_network.node[13].content_store 	p_hit[13] 	0.26766806205368
scalar tree_4_3_u09_r5_network.node[13].content_store 	hits[13] 	3261
scalar tree_4_3_u09_r5_network.node[13].content_store 	misses[13] 	8922
scalar tree_4_3_u09_r5_network.node[13].content_store 	decision_yes[13] 	348
scalar tree_4_3_u09_r5_network.node[13].content_store 	decision_no[13] 	8573
scalar tree_4_3_u09_r5_network.node[13].content_store 	decision_ratio[13] 	0.039009079699585
scalar tree_4_3_u09_r5_network.node[14].core_layer 	interests[14] 	11917
scalar tree_4_3_u09_r5_network.node[14].core_layer 	data[14] 	8788
scalar tree_4_3_u09_r5_network.node[14].content_store 	p_hit[14] 	0.26256608206763
scalar tree_4_3_u09_r5_network.node[14].content_store 	hits[14] 	3129
scalar tree_4_3_u09_r5_network.node[14].content_store 	misses[14] 	8788
scalar tree_4_3_u09_r5_network.node[14].content_store 	decision_yes[14] 	338
scalar tree_4_3_u09_r5_network.node[14].content_store 	decision_no[14] 	8450
scalar tree_4_3_u09_r5_network.node[14].content_store 	decision_ratio[14] 	0.038461538461538
scalar tree_4_3_u09_r5_network.node[15].core_layer 	interests[15] 	12030
scalar tree_4_3_u09_r5_network.node[15].core_layer 	data[15] 	8790
scalar tree_4_3_u09_r5_network.node[15].content_store 	p_hit[15] 	0.26924355777224
scalar tree_4_3_u09_r5_network.node[15].content_store 	hits[15] 	3239
scalar tree_4_3_u09_r5_network.node[15].content_store 	misses[15] 	8791
scalar tree_4_3_u09_r5_network.node[15].content_store 	decision_yes[15] 	322
scalar tree_4_3_u09_r5_network.node[15].content_store 	decision_no[15] 	8468
scalar tree_4_3_u09_r5_network.node[15].content_store 	decision_ratio[15] 	0.036632536973834
scalar tree_4_3_u09_r5_network.node[16].core_layer 	interests[16] 	12012
scalar tree_4_3_u09_r5_network.node[16].core_layer 	data[16] 	8792
scalar tree_4_3_u09_r5_network.node[16].content_store 	p_hit[16] 	0.26806526806527
scalar tree_4_3_u09_r5_network.node[16].content_store 	hits[16] 	3220
scalar tree_4_3_u09_r5_network.node[16].content_store 	misses[16] 	8792
scalar tree_4_3_u09_r5_network.node[16].content_store 	decision_yes[16] 	336
scalar tree_4_3_u09_r5_network.node[16].content_store 	decision_no[16] 	8456
scalar tree_4_3_u09_r5_network.node[16].content_store 	decision_ratio[16] 	0.038216560509554
scalar tree_4_3_u09_r5_network.node[17].core_layer 	interests[17] 	11988
scalar tree_4_3_u09_r5_network.node[17].core_layer 	data[17] 	8809
scalar tree_4_3_u09_r5_network.node[17].content_store 	p_hit[17] 	0.26518184851518
scalar tree_4_3_u09_r5_network.node[17].content_store 	hits[17] 	3179
scalar tree_4_3_u09_r5_network.node[17].content_store 	misses[17] 	8809
scalar tree_4_3_u09_r5_network.node[17].content_store 	decision_yes[17] 	307
scalar tree_4_3_u09_r5_network.node[17].content_store 	decision_no[17] 	8502
scalar tree_4_3_u09_r5_network.node[17].content_store 	decision_ratio[17] 	0.034850720853672
scalar tree_4_3_u09_r5_network.node[18].core_layer 	interests[18] 	11760
scalar tree_4_3_u09_r5_network.node[18].core_layer 	data[18] 	8578
scalar tree_4_3_u09_r5_network.node[18].content_store 	p_hit[18] 	0.27057823129252
scalar tree_4_3_u09_r5_network.node[18].content_store 	hits[18] 	3182
scalar tree_4_3_u09_r5_network.node[18].content_store 	misses[18] 	8578
scalar tree_4_3_u09_r5_network.node[18].content_store 	decision_yes[18] 	329
scalar tree_4_3_u09_r5_network.node[18].content_store 	decision_no[18] 	8249
scalar tree_4_3_u09_r5_network.node[18].content_store 	decision_ratio[18] 	0.038353928654698
scalar tree_4_3_u09_r5_network.node[19].core_layer 	interests[19] 	12040
scalar tree_4_3_u09_r5_network.node[19].core_layer 	data[19] 	8890
scalar tree_4_3_u09_r5_network.node[19].content_store 	p_hit[19] 	0.26162790697674
scalar tree_4_3_u09_r5_network.node[19].content_store 	hits[19] 	3150
scalar tree_4_3_u09_r5_network.node[19].content_store 	misses[19] 	8890
scalar tree_4_3_u09_r5_network.node[19].content_store 	decision_yes[19] 	331
scalar tree_4_3_u09_r5_network.node[19].content_store 	decision_no[19] 	8559
scalar tree_4_3_u09_r5_network.node[19].content_store 	decision_ratio[19] 	0.037232845894263
scalar tree_4_3_u09_r5_network.node[20].core_layer 	interests[20] 	11995
scalar tree_4_3_u09_r5_network.node[20].core_layer 	data[20] 	8823
scalar tree_4_3_u09_r5_network.node[20].content_store 	p_hit[20] 	0.26444351813256
scalar tree_4_3_u09_r5_network.node[20].content_store 	hits[20] 	3172
scalar tree_4_3_u09_r5_network.node[20].content_store 	misses[20] 	8823
scalar tree_4_3_u09_r5_network.node[20].content_store 	decision_yes[20] 	295
scalar tree_4_3_u09_r5_network.node[20].content_store 	decision_no[20] 	8528
scalar tree_4_3_u09_r5_network.node[20].content_store 	decision_ratio[20] 	0.033435339453701
scalar tree_4_3_u09_r5_network.node[21].core_layer 	interests[21] 	11942
scalar tree_4_3_u09_r5_network.node[21].core_layer 	data[21] 	8808
scalar tree_4_3_u09_r5_network.node[21].content_store 	p_hit[21] 	0.2623513649305
scalar tree_4_3_u09_r5_network.node[21].content_store 	hits[21] 	3133
scalar tree_4_3_u09_r5_network.node[21].content_store 	misses[21] 	8809
scalar tree_4_3_u09_r5_network.node[21].content_store 	decision_yes[21] 	265
scalar tree_4_3_u09_r5_network.node[21].content_store 	decision_no[21] 	8543
scalar tree_4_3_u09_r5_network.node[21].content_store 	decision_ratio[21] 	0.030086285195277
scalar tree_4_3_u09_r5_network.node[22].core_layer 	interests[22] 	11761
scalar tree_4_3_u09_r5_network.node[22].core_layer 	data[22] 	8639
scalar tree_4_3_u09_r5_network.node[22].content_store 	p_hit[22] 	0.26545361788964
scalar tree_4_3_u09_r5_network.node[22].content_store 	hits[22] 	3122
scalar tree_4_3_u09_r5_network.node[22].content_store 	misses[22] 	8639
scalar tree_4_3_u09_r5_network.node[22].content_store 	decision_yes[22] 	322
scalar tree_4_3_u09_r5_network.node[22].content_store 	decision_no[22] 	8317
scalar tree_4_3_u09_r5_network.node[22].content_store 	decision_ratio[22] 	0.037272832503762
scalar tree_4_3_u09_r5_network.node[23].core_layer 	interests[23] 	11954
scalar tree_4_3_u09_r5_network.node[23].core_layer 	data[23] 	8725
scalar tree_4_3_u09_r5_network.node[23].content_store 	p_hit[23] 	0.27011878868998
scalar tree_4_3_u09_r5_network.node[23].content_store 	hits[23] 	3229
scalar tree_4_3_u09_r5_network.node[23].content_store 	misses[23] 	8725
scalar tree_4_3_u09_r5_network.node[23].content_store 	decision_yes[23] 	309
scalar tree_4_3_u09_r5_network.node[23].content_store 	decision_no[23] 	8416
scalar tree_4_3_u09_r5_network.node[23].content_store 	decision_ratio[23] 	0.03541547277937
scalar tree_4_3_u09_r5_network.node[24].core_layer 	interests[24] 	11785
scalar tree_4_3_u09_r5_network.node[24].core_layer 	data[24] 	8654
scalar tree_4_3_u09_r5_network.node[24].content_store 	p_hit[24] 	0.26567670767925
scalar tree_4_3_u09_r5_network.node[24].content_store 	hits[24] 	3131
scalar tree_4_3_u09_r5_network.node[24].content_store 	misses[24] 	8654
scalar tree_4_3_u09_r5_network.node[24].content_store 	decision_yes[24] 	307
scalar tree_4_3_u09_r5_network.node[24].content_store 	decision_no[24] 	8347
scalar tree_4_3_u09_r5_network.node[24].content_store 	decision_ratio[24] 	0.035474924890224
scalar tree_4_3_u09_r5_network.node[25].core_layer 	interests[25] 	11954
scalar tree_4_3_u09_r5_network.node[25].core_layer 	data[25] 	8757
scalar tree_4_3_u09_r5_network.node[25].content_store 	p_hit[25] 	0.26744186046512
scalar tree_4_3_u09_r5_network.node[25].content_store 	hits[25] 	3197
scalar tree_4_3_u09_r5_network.node[25].content_store 	misses[25] 	8757
scalar tree_4_3_u09_r5_network.node[25].content_store 	decision_yes[25] 	299
scalar tree_4_3_u09_r5_network.node[25].content_store 	decision_no[25] 	8458
scalar tree_4_3_u09_r5_network.node[25].content_store 	decision_ratio[25] 	0.034144113280804
scalar tree_4_3_u09_r5_network.node[26].core_layer 	interests[26] 	11883
scalar tree_4_3_u09_r5_network.node[26].core_layer 	data[26] 	8626
scalar tree_4_3_u09_r5_network.node[26].content_store 	p_hit[26] 	0.27408903475553
scalar tree_4_3_u09_r5_network.node[26].content_store 	hits[26] 	3257
scalar tree_4_3_u09_r5_network.node[26].content_store 	misses[26] 	8626
scalar tree_4_3_u09_r5_network.node[26].content_store 	decision_yes[26] 	237
scalar tree_4_3_u09_r5_network.node[26].content_store 	decision_no[26] 	8389
scalar tree_4_3_u09_r5_network.node[26].content_store 	decision_ratio[26] 	0.027475075353582
scalar tree_4_3_u09_r5_network.node[27].core_layer 	interests[27] 	12088
scalar tree_4_3_u09_r5_network.node[27].core_layer 	data[27] 	8924
scalar tree_4_3_u09_r5_network.node[27].content_store 	p_hit[27] 	0.26174718729318
scalar tree_4_3_u09_r5_network.node[27].content_store 	hits[27] 	3164
scalar tree_4_3_u09_r5_network.node[27].content_store 	misses[27] 	8924
scalar tree_4_3_u09_r5_network.node[27].content_store 	decision_yes[27] 	264
scalar tree_4_3_u09_r5_network.node[27].content_store 	decision_no[27] 	8660
scalar tree_4_3_u09_r5_network.node[27].content_store 	decision_ratio[27] 	0.029583146571044
scalar tree_4_3_u09_r5_network.node[28].core_layer 	interests[28] 	11999
scalar tree_4_3_u09_r5_network.node[28].core_layer 	data[28] 	8805
scalar tree_4_3_u09_r5_network.node[28].content_store 	p_hit[28] 	0.26618884907076
scalar tree_4_3_u09_r5_network.node[28].content_store 	hits[28] 	3194
scalar tree_4_3_u09_r5_network.node[28].content_store 	misses[28] 	8805
scalar tree_4_3_u09_r5_network.node[28].content_store 	decision_yes[28] 	276
scalar tree_4_3_u09_r5_network.node[28].content_store 	decision_no[28] 	8529
scalar tree_4_3_u09_r5_network.node[28].content_store 	decision_ratio[28] 	0.031345826235094
scalar tree_4_3_u09_r5_network.node[29].core_layer 	interests[29] 	12042
scalar tree_4_3_u09_r5_network.node[29].core_layer 	data[29] 	8869
scalar tree_4_3_u09_r5_network.node[29].content_store 	p_hit[29] 	0.26349443614018
scalar tree_4_3_u09_r5_network.node[29].content_store 	hits[29] 	3173
scalar tree_4_3_u09_r5_network.node[29].content_store 	misses[29] 	8869
scalar tree_4_3_u09_r5_network.node[29].content_store 	decision_yes[29] 	282
scalar tree_4_3_u09_r5_network.node[29].content_store 	decision_no[29] 	8587
scalar tree_4_3_u09_r5_network.node[29].content_store 	decision_ratio[29] 	0.031796143871913
scalar tree_4_3_u09_r5_network.node[30].core_layer 	interests[30] 	12181
scalar tree_4_3_u09_r5_network.node[30].core_layer 	data[30] 	8985
scalar tree_4_3_u09_r5_network.node[30].content_store 	p_hit[30] 	0.26229373614646
scalar tree_4_3_u09_r5_network.node[30].content_store 	hits[30] 	3195
scalar tree_4_3_u09_r5_network.node[30].content_store 	misses[30] 	8986
scalar tree_4_3_u09_r5_network.node[30].content_store 	decision_yes[30] 	269
scalar tree_4_3_u09_r5_network.node[30].content_store 	decision_no[30] 	8716
scalar tree_4_3_u09_r5_network.node[30].content_store 	decision_ratio[30] 	0.029938786867001
scalar tree_4_3_u09_r5_network.node[31].core_layer 	interests[31] 	11993
scalar tree_4_3_u09_r5_network.node[31].core_layer 	data[31] 	8806
scalar tree_4_3_u09_r5_network.node[31].content_store 	p_hit[31] 	0.2657383473693
scalar tree_4_3_u09_r5_network.node[31].content_store 	hits[31] 	3187
scalar tree_4_3_u09_r5_network.node[31].content_store 	misses[31] 	8806
scalar tree_4_3_u09_r5_network.node[31].content_store 	decision_yes[31] 	319
scalar tree_4_3_u09_r5_network.node[31].content_store 	decision_no[31] 	8487
scalar tree_4_3_u09_r5_network.node[31].content_store 	decision_ratio[31] 	0.036225300931183
scalar tree_4_3_u09_r5_network.node[32].core_layer 	interests[32] 	11900
scalar tree_4_3_u09_r5_network.node[32].core_layer 	data[32] 	8725
scalar tree_4_3_u09_r5_network.node[32].content_store 	p_hit[32] 	0.26680672268908
scalar tree_4_3_u09_r5_network.node[32].content_store 	hits[32] 	3175
scalar tree_4_3_u09_r5_network.node[32].content_store 	misses[32] 	8725
scalar tree_4_3_u09_r5_network.node[32].content_store 	decision_yes[32] 	337
scalar tree_4_3_u09_r5_network.node[32].content_store 	decision_no[32] 	8388
scalar tree_4_3_u09_r5_network.node[32].content_store 	decision_ratio[32] 	0.038624641833811
scalar tree_4_3_u09_r5_network.node[33].core_layer 	interests[33] 	12262
scalar tree_4_3_u09_r5_network.node[33].core_layer 	data[33] 	9016
scalar tree_4_3_u09_r5_network.node[33].content_store 	p_hit[33] 	0.26463872125265
scalar tree_4_3_u09_r5_network.node[33].content_store 	hits[33] 	3245
scalar tree_4_3_u09_r5_network.node[33].content_store 	misses[33] 	9017
scalar tree_4_3_u09_r5_network.node[33].content_store 	decision_yes[33] 	326
scalar tree_4_3_u09_r5_network.node[33].content_store 	decision_no[33] 	8690
scalar tree_4_3_u09_r5_network.node[33].content_store 	decision_ratio[33] 	0.036157941437445
scalar tree_4_3_u09_r5_network.node[34].core_layer 	interests[34] 	12059
scalar tree_4_3_u09_r5_network.node[34].core_layer 	data[34] 	8939
scalar tree_4_3_u09_r5_network.node[34].content_store 	p_hit[34] 	0.25881084667054
scalar tree_4_3_u09_r5_network.node[34].content_store 	hits[34] 	3121
scalar tree_4_3_u09_r5_network.node[34].content_store 	misses[34] 	8938
scalar tree_4_3_u09_r5_network.node[34].content_store 	decision_yes[34] 	360
scalar tree_4_3_u09_r5_network.node[34].content_store 	decision_no[34] 	8579
scalar tree_4_3_u09_r5_network.node[34].content_store 	decision_ratio[34] 	0.04027296118134
scalar tree_4_3_u09_r5_network.node[35].core_layer 	interests[35] 	11871
scalar tree_4_3_u09_r5_network.node[35].core_layer 	data[35] 	8709
scalar tree_4_3_u09_r5_network.node[35].content_store 	p_hit[35] 	0.26636340662118
scalar tree_4_3_u09_r5_network.node[35].content_store 	hits[35] 	3162
scalar tree_4_3_u09_r5_network.node[35].content_store 	misses[35] 	8709
scalar tree_4_3_u09_r5_network.node[35].content_store 	decision_yes[35] 	275
scalar tree_4_3_u09_r5_network.node[35].content_store 	decision_no[35] 	8434
scalar tree_4_3_u09_r5_network.node[35].content_store 	decision_ratio[35] 	0.031576530026409
scalar tree_4_3_u09_r5_network.node[36].core_layer 	interests[36] 	11908
scalar tree_4_3_u09_r5_network.node[36].core_layer 	data[36] 	8719
scalar tree_4_3_u09_r5_network.node[36].content_store 	p_hit[36] 	0.26780315754115
scalar tree_4_3_u09_r5_network.node[36].content_store 	hits[36] 	3189
scalar tree_4_3_u09_r5_network.node[36].content_store 	misses[36] 	8719
scalar tree_4_3_u09_r5_network.node[36].content_store 	decision_yes[36] 	250
scalar tree_4_3_u09_r5_network.node[36].content_store 	decision_no[36] 	8469
scalar tree_4_3_u09_r5_network.node[36].content_store 	decision_ratio[36] 	0.028673012960202
scalar tree_4_3_u09_r5_network.node[37].core_layer 	interests[37] 	12031
scalar tree_4_3_u09_r5_network.node[37].core_layer 	data[37] 	8913
scalar tree_4_3_u09_r5_network.node[37].content_store 	p_hit[37] 	0.25916382678082
scalar tree_4_3_u09_r5_network.node[37].content_store 	hits[37] 	3118
scalar tree_4_3_u09_r5_network.node[37].content_store 	misses[37] 	8913
scalar tree_4_3_u09_r5_network.node[37].content_store 	decision_yes[37] 	331
scalar tree_4_3_u09_r5_network.node[37].content_store 	decision_no[37] 	8582
scalar tree_4_3_u09_r5_network.node[37].content_store 	decision_ratio[37] 	0.037136766520812
scalar tree_4_3_u09_r5_network.node[38].core_layer 	interests[38] 	12050
scalar tree_4_3_u09_r5_network.node[38].core_layer 	data[38] 	8868
scalar tree_4_3_u09_r5_network.node[38].content_store 	p_hit[38] 	0.26406639004149
scalar tree_4_3_u09_r5_network.node[38].content_store 	hits[38] 	3182
scalar tree_4_3_u09_r5_network.node[38].content_store 	misses[38] 	8868
scalar tree_4_3_u09_r5_network.node[38].content_store 	decision_yes[38] 	269
scalar tree_4_3_u09_r5_network.node[38].content_store 	decision_no[38] 	8599
scalar tree_4_3_u09_r5_network.node[38].content_store 	decision_ratio[38] 	0.030333784393324
scalar tree_4_3_u09_r5_network.node[39].core_layer 	interests[39] 	11921
scalar tree_4_3_u09_r5_network.node[39].core_layer 	data[39] 	8814
scalar tree_4_3_u09_r5_network.node[39].content_store 	p_hit[39] 	0.26063249727372
scalar tree_4_3_u09_r5_network.node[39].content_store 	hits[39] 	3107
scalar tree_4_3_u09_r5_network.node[39].content_store 	misses[39] 	8814
scalar tree_4_3_u09_r5_network.node[39].content_store 	decision_yes[39] 	170
scalar tree_4_3_u09_r5_network.node[39].content_store 	decision_no[39] 	8644
scalar tree_4_3_u09_r5_network.node[39].content_store 	decision_ratio[39] 	0.019287497163603
scalar tree_4_3_u09_r5_network.client[13] 	hdistance[13] 	2.8084879330159
scalar tree_4_3_u09_r5_network.client[13] 	downloads[13] 	12182
scalar tree_4_3_u09_r5_network.client[13] 	avg_time[13] 	0.004251187216
scalar tree_4_3_u09_r5_network.client[14] 	hdistance[14] 	2.8263824788118
scalar tree_4_3_u09_r5_network.client[14] 	downloads[14] 	11917
scalar tree_4_3_u09_r5_network.client[14] 	avg_time[14] 	0.004279340344
scalar tree_4_3_u09_r5_network.client[15] 	hdistance[15] 	2.8087954110899
scalar tree_4_3_u09_r5_network.client[15] 	downloads[15] 	12029
scalar tree_4_3_u09_r5_network.client[15] 	avg_time[15] 	0.004250171655
scalar tree_4_3_u09_r5_network.client[16] 	hdistance[16] 	2.8099400599401
scalar tree_4_3_u09_r5_network.client[16] 	downloads[16] 	12012
scalar tree_4_3_u09_r5_network.client[16] 	avg_time[16] 	0.00425341028
scalar tree_4_3_u09_r5_network.client[17] 	hdistance[17] 	2.8211544878211
scalar tree_4_3_u09_r5_network.client[17] 	downloads[17] 	11988
scalar tree_4_3_u09_r5_network.client[17] 	avg_time[17] 	0.004271768763
scalar tree_4_3_u09_r5_network.client[18] 	hdistance[18] 	2.7940476190476
scalar tree_4_3_u09_r5_network.client[18] 	downloads[18] 	11760
scalar tree_4_3_u09_r5_network.client[18] 	avg_time[18] 	0.00423092586
scalar tree_4_3_u09_r5_network.client[19] 	hdistance[19] 	2.8406976744186
scalar tree_4_3_u09_r5_network.client[19] 	downloads[19] 	12040
scalar tree_4_3_u09_r5_network.client[19] 	avg_time[19] 	0.004296840833
scalar tree_4_3_u09_r5_network.client[20] 	hdistance[20] 	2.8330137557316
scalar tree_4_3_u09_r5_network.client[20] 	downloads[20] 	11995
scalar tree_4_3_u09_r5_network.client[20] 	avg_time[20] 	0.004286303672
scalar tree_4_3_u09_r5_network.client[21] 	hdistance[21] 	2.8344359768863
scalar tree_4_3_u09_r5_network.client[21] 	downloads[21] 	11941
scalar tree_4_3_u09_r5_network.client[21] 	avg_time[21] 	0.004295282164
scalar tree_4_3_u09_r5_network.client[22] 	hdistance[22] 	2.81642717456
scalar tree_4_3_u09_r5_network.client[22] 	downloads[22] 	11761
scalar tree_4_3_u09_r5_network.client[22] 	avg_time[22] 	0.004266130862
scalar tree_4_3_u09_r5_network.client[23] 	hdistance[23] 	2.8039150075288
scalar tree_4_3_u09_r5_network.client[23] 	downloads[23] 	11954
scalar tree_4_3_u09_r5_network.client[23] 	avg_time[23] 	0.004243932082
scalar tree_4_3_u09_r5_network.client[24] 	hdistance[24] 	2.8207891387357
scalar tree_4_3_u09_r5_network.client[24] 	downloads[24] 	11785
scalar tree_4_3_u09_r5_network.client[24] 	avg_time[24] 	0.004270093776
scalar tree_4_3_u09_r5_network.client[25] 	hdistance[25] 	2.8206458089342
scalar tree_4_3_u09_r5_network.client[25] 	downloads[25] 	11954
scalar tree_4_3_u09_r5_network.client[25] 	avg_time[25] 	0.004267689794
scalar tree_4_3_u09_r5_network.client[26] 	hdistance[26] 	2.8144407977783
scalar tree_4_3_u09_r5_network.client[26] 	downloads[26] 	11883
scalar tree_4_3_u09_r5_network.client[26] 	avg_time[26] 	0.004251214655
scalar tree_4_3_u09_r5_network.client[27] 	hdistance[27] 	2.8593646591661
scalar tree_4_3_u09_r5_network.client[27] 	downloads[27] 	12088
scalar tree_4_3_u09_r5_network.client[27] 	avg_time[27] 	0.004320645564
scalar tree_4_3_u09_r5_network.client[28] 	hdistance[28] 	2.8302358529878
scalar tree_4_3_u09_r5_network.client[28] 	downloads[28] 	11999
scalar tree_4_3_u09_r5_network.client[28] 	avg_time[28] 	0.004281687157
scalar tree_4_3_u09_r5_network.client[29] 	hdistance[29] 	2.8446271383491
scalar tree_4_3_u09_r5_network.client[29] 	downloads[29] 	12042
scalar tree_4_3_u09_r5_network.client[29] 	avg_time[29] 	0.004301774114
scalar tree_4_3_u09_r5_network.client[30] 	hdistance[30] 	2.8489326765189
scalar tree_4_3_u09_r5_network.client[30] 	downloads[30] 	12180
scalar tree_4_3_u09_r5_network.client[30] 	avg_time[30] 	0.00430867843
scalar tree_4_3_u09_r5_network.client[31] 	hdistance[31] 	2.8231468356541
scalar tree_4_3_u09_r5_network.client[31] 	downloads[31] 	11993
scalar tree_4_3_u09_r5_network.client[31] 	avg_time[31] 	0.004272527498
scalar tree_4_3_u09_r5_network.client[32] 	hdistance[32] 	2.813781512605
scalar tree_4_3_u09_r5_network.client[32] 	downloads[32] 	11900
scalar tree_4_3_u09_r5_network.client[32] 	avg_time[32] 	0.004258992883
scalar tree_4_3_u09_r5_network.client[33] 	hdistance[33] 	2.8279911915831
scalar tree_4_3_u09_r5_network.client[33] 	downloads[33] 	12261
scalar tree_4_3_u09_r5_network.client[33] 	avg_time[33] 	0.004280110621
scalar tree_4_3_u09_r5_network.client[34] 	hdistance[34] 	2.8397180762852
scalar tree_4_3_u09_r5_network.client[34] 	downloads[34] 	12060
scalar tree_4_3_u09_r5_network.client[34] 	avg_time[34] 	0.004299001946
scalar tree_4_3_u09_r5_network.client[35] 	hdistance[35] 	2.8351444697161
scalar tree_4_3_u09_r5_network.client[35] 	downloads[35] 	11871
scalar tree_4_3_u09_r5_network.client[35] 	avg_time[35] 	0.004284724486
scalar tree_4_3_u09_r5_network.client[36] 	hdistance[36] 	2.8347329526369
scalar tree_4_3_u09_r5_network.client[36] 	downloads[36] 	11908
scalar tree_4_3_u09_r5_network.client[36] 	avg_time[36] 	0.004285687314
scalar tree_4_3_u09_r5_network.client[37] 	hdistance[37] 	2.8479760618402
scalar tree_4_3_u09_r5_network.client[37] 	downloads[37] 	12031
scalar tree_4_3_u09_r5_network.client[37] 	avg_time[37] 	0.004308419854
scalar tree_4_3_u09_r5_network.client[38] 	hdistance[38] 	2.8476348547718
scalar tree_4_3_u09_r5_network.client[38] 	downloads[38] 	12050
scalar tree_4_3_u09_r5_network.client[38] 	avg_time[38] 	0.004304063395
scalar tree_4_3_u09_r5_network.client[39] 	hdistance[39] 	2.8932975421525
scalar tree_4_3_u09_r5_network.client[39] 	downloads[39] 	11921
scalar tree_4_3_u09_r5_network.client[39] 	avg_time[39] 	0.004365067061
