version 2
run General-189-20160820-11:51:02-856
attr a 0.9
attr cd lcd
attr configname General
attr cr lru
attr datetime 20160820-11:51:02
attr experiment General
attr fsize 1
attr inifile hw5115/scenario_A/SPR-LCD.ini
attr iterationvars "$name=tree_4_3, $un=09, $rep=10, $cd=lcd, $cr=lru, $fsize=1, $a=0.9, $sl=spr, $ttl=1000, $variance=0.05"
attr iterationvars2 "$name=tree_4_3, $un=09, $rep=10, $cd=lcd, $cr=lru, $fsize=1, $a=0.9, $sl=spr, $ttl=1000, $variance=0.05, $repetition=0"
attr measurement "$name=tree_4_3, $un=09, $rep=10, $cd=lcd, $cr=lru, $fsize=1, $a=0.9, $sl=spr, $ttl=1000, $variance=0.05"
attr name tree_4_3
attr network networks.${name}_u${un}_r${rep}_network
attr processid 856
attr rep 10
attr repetition 0
attr replication #0
attr resultdir results
attr runnumber 189
attr seedset 10
attr sl spr
attr ttl 1000
attr un 09
attr variance 0.05

scalar . 	a 	0.9
scalar . 	fsize 	1
scalar . 	rep 	10
scalar . 	ttl 	1000
scalar . 	un 	09
scalar . 	variance 	0.05
scalar tree_4_3_u09_r10_network.content_distribution 	repo-0 	0
scalar tree_4_3_u09_r10_network.content_distribution 	client-0 	13
scalar tree_4_3_u09_r10_network.content_distribution 	client-1 	14
scalar tree_4_3_u09_r10_network.content_distribution 	client-2 	15
scalar tree_4_3_u09_r10_network.content_distribution 	client-3 	16
scalar tree_4_3_u09_r10_network.content_distribution 	client-4 	17
scalar tree_4_3_u09_r10_network.content_distribution 	client-5 	18
scalar tree_4_3_u09_r10_network.content_distribution 	client-6 	19
scalar tree_4_3_u09_r10_network.content_distribution 	client-7 	20
scalar tree_4_3_u09_r10_network.content_distribution 	client-8 	21
scalar tree_4_3_u09_r10_network.content_distribution 	client-9 	22
scalar tree_4_3_u09_r10_network.content_distribution 	client-10 	23
scalar tree_4_3_u09_r10_network.content_distribution 	client-11 	24
scalar tree_4_3_u09_r10_network.content_distribution 	client-12 	25
scalar tree_4_3_u09_r10_network.content_distribution 	client-13 	26
scalar tree_4_3_u09_r10_network.content_distribution 	client-14 	27
scalar tree_4_3_u09_r10_network.content_distribution 	client-15 	28
scalar tree_4_3_u09_r10_network.content_distribution 	client-16 	29
scalar tree_4_3_u09_r10_network.content_distribution 	client-17 	30
scalar tree_4_3_u09_r10_network.content_distribution 	client-18 	31
scalar tree_4_3_u09_r10_network.content_distribution 	client-19 	32
scalar tree_4_3_u09_r10_network.content_distribution 	client-20 	33
scalar tree_4_3_u09_r10_network.content_distribution 	client-21 	34
scalar tree_4_3_u09_r10_network.content_distribution 	client-22 	35
scalar tree_4_3_u09_r10_network.content_distribution 	client-23 	36
scalar tree_4_3_u09_r10_network.content_distribution 	client-24 	37
scalar tree_4_3_u09_r10_network.content_distribution 	client-25 	38
scalar tree_4_3_u09_r10_network.content_distribution 	client-26 	39
scalar tree_4_3_u09_r10_network.content_distribution 	repo-0_card 	100000
scalar tree_4_3_u09_r10_network.content_distribution 	repo-0_price 	0
scalar tree_4_3_u09_r10_network.statistics 	stabilization_time 	5112.5
scalar tree_4_3_u09_r10_network.statistics 	p_hit 	0.18776127888669
scalar tree_4_3_u09_r10_network.statistics 	interests 	25453.375
scalar tree_4_3_u09_r10_network.statistics 	data 	17348.625
scalar tree_4_3_u09_r10_network.statistics 	hdistance 	2.8304825854074
scalar tree_4_3_u09_r10_network.statistics 	avg_time 	0.004281287848
scalar tree_4_3_u09_r10_network.statistics 	downloads 	324177
scalar tree_4_3_u09_r10_network.statistics 	total_cost 	0
scalar tree_4_3_u09_r10_network.statistics 	total_replicas 	100000
scalar tree_4_3_u09_r10_network.statistics 	inner_hit 	0.31020090876281
scalar tree_4_3_u09_r10_network.node[0].core_layer 	interests[0] 	225759
scalar tree_4_3_u09_r10_network.node[0].core_layer 	repo_load[0] 	223617
scalar tree_4_3_u09_r10_network.node[0].core_layer 	data[0] 	0
scalar tree_4_3_u09_r10_network.node[0].core_layer 	repo_int[0] 	223617
scalar tree_4_3_u09_r10_network.node[0].content_store 	p_hit[0] 	0.0094879938341329
scalar tree_4_3_u09_r10_network.node[0].content_store 	hits[0] 	2142
scalar tree_4_3_u09_r10_network.node[0].content_store 	misses[0] 	223617
scalar tree_4_3_u09_r10_network.node[0].content_store 	decision_yes[0] 	223617
scalar tree_4_3_u09_r10_network.node[0].content_store 	decision_no[0] 	0
scalar tree_4_3_u09_r10_network.node[0].content_store 	decision_ratio[0] 	1
scalar tree_4_3_u09_r10_network.node[1].core_layer 	interests[1] 	152919
scalar tree_4_3_u09_r10_network.node[1].core_layer 	data[1] 	149829
scalar tree_4_3_u09_r10_network.node[1].content_store 	p_hit[1] 	0.020161000268116
scalar tree_4_3_u09_r10_network.node[1].content_store 	hits[1] 	3083
scalar tree_4_3_u09_r10_network.node[1].content_store 	misses[1] 	149836
scalar tree_4_3_u09_r10_network.node[1].content_store 	decision_yes[1] 	1420
scalar tree_4_3_u09_r10_network.node[1].content_store 	decision_no[1] 	148409
scalar tree_4_3_u09_r10_network.node[1].content_store 	decision_ratio[1] 	0.009477470983588
scalar tree_4_3_u09_r10_network.node[2].core_layer 	interests[2] 	68595
scalar tree_4_3_u09_r10_network.node[2].core_layer 	data[2] 	67452
scalar tree_4_3_u09_r10_network.node[2].content_store 	p_hit[2] 	0.016677600408193
scalar tree_4_3_u09_r10_network.node[2].content_store 	hits[2] 	1144
scalar tree_4_3_u09_r10_network.node[2].content_store 	misses[2] 	67451
scalar tree_4_3_u09_r10_network.node[2].content_store 	decision_yes[2] 	637
scalar tree_4_3_u09_r10_network.node[2].content_store 	decision_no[2] 	66815
scalar tree_4_3_u09_r10_network.node[2].content_store 	decision_ratio[2] 	0.0094437525944375
scalar tree_4_3_u09_r10_network.node[3].core_layer 	interests[3] 	8570
scalar tree_4_3_u09_r10_network.node[3].core_layer 	data[3] 	8476
scalar tree_4_3_u09_r10_network.node[3].content_store 	p_hit[3] 	0.010968494749125
scalar tree_4_3_u09_r10_network.node[3].content_store 	hits[3] 	94
scalar tree_4_3_u09_r10_network.node[3].content_store 	misses[3] 	8476
scalar tree_4_3_u09_r10_network.node[3].content_store 	decision_yes[3] 	85
scalar tree_4_3_u09_r10_network.node[3].content_store 	decision_no[3] 	8391
scalar tree_4_3_u09_r10_network.node[3].content_store 	decision_ratio[3] 	0.010028315243039
scalar tree_4_3_u09_r10_network.node[4].core_layer 	interests[4] 	44306
scalar tree_4_3_u09_r10_network.node[4].core_layer 	data[4] 	42628
scalar tree_4_3_u09_r10_network.node[4].content_store 	p_hit[4] 	0.037805263395477
scalar tree_4_3_u09_r10_network.node[4].content_store 	hits[4] 	1675
scalar tree_4_3_u09_r10_network.node[4].content_store 	misses[4] 	42631
scalar tree_4_3_u09_r10_network.node[4].content_store 	decision_yes[4] 	764
scalar tree_4_3_u09_r10_network.node[4].content_store 	decision_no[4] 	41864
scalar tree_4_3_u09_r10_network.node[4].content_store 	decision_ratio[4] 	0.017922492258609
scalar tree_4_3_u09_r10_network.node[5].core_layer 	interests[5] 	26595
scalar tree_4_3_u09_r10_network.node[5].core_layer 	data[5] 	25678
scalar tree_4_3_u09_r10_network.node[5].content_store 	p_hit[5] 	0.034480165444632
scalar tree_4_3_u09_r10_network.node[5].content_store 	hits[5] 	917
scalar tree_4_3_u09_r10_network.node[5].content_store 	misses[5] 	25678
scalar tree_4_3_u09_r10_network.node[5].content_store 	decision_yes[5] 	575
scalar tree_4_3_u09_r10_network.node[5].content_store 	decision_no[5] 	25103
scalar tree_4_3_u09_r10_network.node[5].content_store 	decision_ratio[5] 	0.022392709712594
scalar tree_4_3_u09_r10_network.node[6].core_layer 	interests[6] 	8757
scalar tree_4_3_u09_r10_network.node[6].core_layer 	data[6] 	8494
scalar tree_4_3_u09_r10_network.node[6].content_store 	p_hit[6] 	0.030033116364052
scalar tree_4_3_u09_r10_network.node[6].content_store 	hits[6] 	263
scalar tree_4_3_u09_r10_network.node[6].content_store 	misses[6] 	8494
scalar tree_4_3_u09_r10_network.node[6].content_store 	decision_yes[6] 	256
scalar tree_4_3_u09_r10_network.node[6].content_store 	decision_no[6] 	8238
scalar tree_4_3_u09_r10_network.node[6].content_store 	decision_ratio[6] 	0.030138921591712
scalar tree_4_3_u09_r10_network.node[7].core_layer 	interests[7] 	35315
scalar tree_4_3_u09_r10_network.node[7].core_layer 	data[7] 	34060
scalar tree_4_3_u09_r10_network.node[7].content_store 	p_hit[7] 	0.035508990513946
scalar tree_4_3_u09_r10_network.node[7].content_store 	hits[7] 	1254
scalar tree_4_3_u09_r10_network.node[7].content_store 	misses[7] 	34061
scalar tree_4_3_u09_r10_network.node[7].content_store 	decision_yes[7] 	722
scalar tree_4_3_u09_r10_network.node[7].content_store 	decision_no[7] 	33338
scalar tree_4_3_u09_r10_network.node[7].content_store 	decision_ratio[7] 	0.021197886083382
scalar tree_4_3_u09_r10_network.node[8].core_layer 	interests[8] 	17605
scalar tree_4_3_u09_r10_network.node[8].core_layer 	data[8] 	17123
scalar tree_4_3_u09_r10_network.node[8].content_store 	p_hit[8] 	0.027435387673956
scalar tree_4_3_u09_r10_network.node[8].content_store 	hits[8] 	483
scalar tree_4_3_u09_r10_network.node[8].content_store 	misses[8] 	17122
scalar tree_4_3_u09_r10_network.node[8].content_store 	decision_yes[8] 	343
scalar tree_4_3_u09_r10_network.node[8].content_store 	decision_no[8] 	16780
scalar tree_4_3_u09_r10_network.node[8].content_store 	decision_ratio[8] 	0.020031536529814
scalar tree_4_3_u09_r10_network.node[9].core_layer 	interests[9] 	26654
scalar tree_4_3_u09_r10_network.node[9].core_layer 	data[9] 	25828
scalar tree_4_3_u09_r10_network.node[9].content_store 	p_hit[9] 	0.030989720117056
scalar tree_4_3_u09_r10_network.node[9].content_store 	hits[9] 	826
scalar tree_4_3_u09_r10_network.node[9].content_store 	misses[9] 	25828
scalar tree_4_3_u09_r10_network.node[9].content_store 	decision_yes[9] 	395
scalar tree_4_3_u09_r10_network.node[9].content_store 	decision_no[9] 	25433
scalar tree_4_3_u09_r10_network.node[9].content_store 	decision_ratio[9] 	0.015293479944247
scalar tree_4_3_u09_r10_network.node[10].core_layer 	interests[10] 	43679
scalar tree_4_3_u09_r10_network.node[10].core_layer 	data[10] 	42057
scalar tree_4_3_u09_r10_network.node[10].content_store 	p_hit[10] 	0.037088761189588
scalar tree_4_3_u09_r10_network.node[10].content_store 	hits[10] 	1620
scalar tree_4_3_u09_r10_network.node[10].content_store 	misses[10] 	42059
scalar tree_4_3_u09_r10_network.node[10].content_store 	decision_yes[10] 	766
scalar tree_4_3_u09_r10_network.node[10].content_store 	decision_no[10] 	41291
scalar tree_4_3_u09_r10_network.node[10].content_store 	decision_ratio[10] 	0.018213377083482
scalar tree_4_3_u09_r10_network.node[11].core_layer 	interests[11] 	26443
scalar tree_4_3_u09_r10_network.node[11].core_layer 	data[11] 	25645
scalar tree_4_3_u09_r10_network.node[11].content_store 	p_hit[11] 	0.030178118972885
scalar tree_4_3_u09_r10_network.node[11].content_store 	hits[11] 	798
scalar tree_4_3_u09_r10_network.node[11].content_store 	misses[11] 	25645
scalar tree_4_3_u09_r10_network.node[11].content_store 	decision_yes[11] 	406
scalar tree_4_3_u09_r10_network.node[11].content_store 	decision_no[11] 	25239
scalar tree_4_3_u09_r10_network.node[11].content_store 	decision_ratio[11] 	0.015831546110353
scalar tree_4_3_u09_r10_network.node[12].core_layer 	interests[12] 	8754
scalar tree_4_3_u09_r10_network.node[12].core_layer 	data[12] 	8570
scalar tree_4_3_u09_r10_network.node[12].content_store 	p_hit[12] 	0.021018962759881
scalar tree_4_3_u09_r10_network.node[12].content_store 	hits[12] 	184
scalar tree_4_3_u09_r10_network.node[12].content_store 	misses[12] 	8570
scalar tree_4_3_u09_r10_network.node[12].content_store 	decision_yes[12] 	94
scalar tree_4_3_u09_r10_network.node[12].content_store 	decision_no[12] 	8476
scalar tree_4_3_u09_r10_network.node[12].content_store 	decision_ratio[12] 	0.010968494749125
scalar tree_4_3_u09_r10_network.node[13].core_layer 	interests[13] 	11965
scalar tree_4_3_u09_r10_network.node[13].core_layer 	data[13] 	8764
scalar tree_4_3_u09_r10_network.node[13].content_store 	p_hit[13] 	0.26744671959883
scalar tree_4_3_u09_r10_network.node[13].content_store 	hits[13] 	3200
scalar tree_4_3_u09_r10_network.node[13].content_store 	misses[13] 	8765
scalar tree_4_3_u09_r10_network.node[13].content_store 	decision_yes[13] 	351
scalar tree_4_3_u09_r10_network.node[13].content_store 	decision_no[13] 	8413
scalar tree_4_3_u09_r10_network.node[13].content_store 	decision_ratio[13] 	0.040050205385669
scalar tree_4_3_u09_r10_network.node[14].core_layer 	interests[14] 	12157
scalar tree_4_3_u09_r10_network.node[14].core_layer 	data[14] 	8905
scalar tree_4_3_u09_r10_network.node[14].content_store 	p_hit[14] 	0.26750020564284
scalar tree_4_3_u09_r10_network.node[14].content_store 	hits[14] 	3252
scalar tree_4_3_u09_r10_network.node[14].content_store 	misses[14] 	8905
scalar tree_4_3_u09_r10_network.node[14].content_store 	decision_yes[14] 	342
scalar tree_4_3_u09_r10_network.node[14].content_store 	decision_no[14] 	8563
scalar tree_4_3_u09_r10_network.node[14].content_store 	decision_ratio[14] 	0.038405390230208
scalar tree_4_3_u09_r10_network.node[15].core_layer 	interests[15] 	11867
scalar tree_4_3_u09_r10_network.node[15].core_layer 	data[15] 	8734
scalar tree_4_3_u09_r10_network.node[15].content_store 	p_hit[15] 	0.26392517064127
scalar tree_4_3_u09_r10_network.node[15].content_store 	hits[15] 	3132
scalar tree_4_3_u09_r10_network.node[15].content_store 	misses[15] 	8735
scalar tree_4_3_u09_r10_network.node[15].content_store 	decision_yes[15] 	316
scalar tree_4_3_u09_r10_network.node[15].content_store 	decision_no[15] 	8418
scalar tree_4_3_u09_r10_network.node[15].content_store 	decision_ratio[15] 	0.036180444240898
scalar tree_4_3_u09_r10_network.node[16].core_layer 	interests[16] 	12044
scalar tree_4_3_u09_r10_network.node[16].core_layer 	data[16] 	8888
scalar tree_4_3_u09_r10_network.node[16].content_store 	p_hit[16] 	0.26195616074394
scalar tree_4_3_u09_r10_network.node[16].content_store 	hits[16] 	3155
scalar tree_4_3_u09_r10_network.node[16].content_store 	misses[16] 	8889
scalar tree_4_3_u09_r10_network.node[16].content_store 	decision_yes[16] 	319
scalar tree_4_3_u09_r10_network.node[16].content_store 	decision_no[16] 	8569
scalar tree_4_3_u09_r10_network.node[16].content_store 	decision_ratio[16] 	0.035891089108911
scalar tree_4_3_u09_r10_network.node[17].core_layer 	interests[17] 	12134
scalar tree_4_3_u09_r10_network.node[17].core_layer 	data[17] 	8920
scalar tree_4_3_u09_r10_network.node[17].content_store 	p_hit[17] 	0.26479314323389
scalar tree_4_3_u09_r10_network.node[17].content_store 	hits[17] 	3213
scalar tree_4_3_u09_r10_network.node[17].content_store 	misses[17] 	8921
scalar tree_4_3_u09_r10_network.node[17].content_store 	decision_yes[17] 	320
scalar tree_4_3_u09_r10_network.node[17].content_store 	decision_no[17] 	8600
scalar tree_4_3_u09_r10_network.node[17].content_store 	decision_ratio[17] 	0.035874439461883
scalar tree_4_3_u09_r10_network.node[18].core_layer 	interests[18] 	11969
scalar tree_4_3_u09_r10_network.node[18].core_layer 	data[18] 	8836
scalar tree_4_3_u09_r10_network.node[18].content_store 	p_hit[18] 	0.26150889798647
scalar tree_4_3_u09_r10_network.node[18].content_store 	hits[18] 	3130
scalar tree_4_3_u09_r10_network.node[18].content_store 	misses[18] 	8839
scalar tree_4_3_u09_r10_network.node[18].content_store 	decision_yes[18] 	294
scalar tree_4_3_u09_r10_network.node[18].content_store 	decision_no[18] 	8542
scalar tree_4_3_u09_r10_network.node[18].content_store 	decision_ratio[18] 	0.033272974196469
scalar tree_4_3_u09_r10_network.node[19].core_layer 	interests[19] 	12099
scalar tree_4_3_u09_r10_network.node[19].core_layer 	data[19] 	9013
scalar tree_4_3_u09_r10_network.node[19].content_store 	p_hit[19] 	0.25506240185139
scalar tree_4_3_u09_r10_network.node[19].content_store 	hits[19] 	3086
scalar tree_4_3_u09_r10_network.node[19].content_store 	misses[19] 	9013
scalar tree_4_3_u09_r10_network.node[19].content_store 	decision_yes[19] 	347
scalar tree_4_3_u09_r10_network.node[19].content_store 	decision_no[19] 	8666
scalar tree_4_3_u09_r10_network.node[19].content_store 	decision_ratio[19] 	0.038499944524576
scalar tree_4_3_u09_r10_network.node[20].core_layer 	interests[20] 	12036
scalar tree_4_3_u09_r10_network.node[20].core_layer 	data[20] 	8837
scalar tree_4_3_u09_r10_network.node[20].content_store 	p_hit[20] 	0.26570289132602
scalar tree_4_3_u09_r10_network.node[20].content_store 	hits[20] 	3198
scalar tree_4_3_u09_r10_network.node[20].content_store 	misses[20] 	8838
scalar tree_4_3_u09_r10_network.node[20].content_store 	decision_yes[20] 	303
scalar tree_4_3_u09_r10_network.node[20].content_store 	decision_no[20] 	8534
scalar tree_4_3_u09_r10_network.node[20].content_store 	decision_ratio[20] 	0.034287654181283
scalar tree_4_3_u09_r10_network.node[21].core_layer 	interests[21] 	11928
scalar tree_4_3_u09_r10_network.node[21].core_layer 	data[21] 	8757
scalar tree_4_3_u09_r10_network.node[21].content_store 	p_hit[21] 	0.26584507042254
scalar tree_4_3_u09_r10_network.node[21].content_store 	hits[21] 	3171
scalar tree_4_3_u09_r10_network.node[21].content_store 	misses[21] 	8757
scalar tree_4_3_u09_r10_network.node[21].content_store 	decision_yes[21] 	263
scalar tree_4_3_u09_r10_network.node[21].content_store 	decision_no[21] 	8494
scalar tree_4_3_u09_r10_network.node[21].content_store 	decision_ratio[21] 	0.030033116364052
scalar tree_4_3_u09_r10_network.node[22].core_layer 	interests[22] 	12033
scalar tree_4_3_u09_r10_network.node[22].core_layer 	data[22] 	8783
scalar tree_4_3_u09_r10_network.node[22].content_store 	p_hit[22] 	0.27009058422671
scalar tree_4_3_u09_r10_network.node[22].content_store 	hits[22] 	3250
scalar tree_4_3_u09_r10_network.node[22].content_store 	misses[22] 	8783
scalar tree_4_3_u09_r10_network.node[22].content_store 	decision_yes[22] 	294
scalar tree_4_3_u09_r10_network.node[22].content_store 	decision_no[22] 	8489
scalar tree_4_3_u09_r10_network.node[22].content_store 	decision_ratio[22] 	0.033473756119777
scalar tree_4_3_u09_r10_network.node[23].core_layer 	interests[23] 	12116
scalar tree_4_3_u09_r10_network.node[23].core_layer 	data[23] 	8940
scalar tree_4_3_u09_r10_network.node[23].content_store 	p_hit[23] 	0.26213271706834
scalar tree_4_3_u09_r10_network.node[23].content_store 	hits[23] 	3176
scalar tree_4_3_u09_r10_network.node[23].content_store 	misses[23] 	8940
scalar tree_4_3_u09_r10_network.node[23].content_store 	decision_yes[23] 	342
scalar tree_4_3_u09_r10_network.node[23].content_store 	decision_no[23] 	8598
scalar tree_4_3_u09_r10_network.node[23].content_store 	decision_ratio[23] 	0.038255033557047
scalar tree_4_3_u09_r10_network.node[24].core_layer 	interests[24] 	12019
scalar tree_4_3_u09_r10_network.node[24].core_layer 	data[24] 	8798
scalar tree_4_3_u09_r10_network.node[24].content_store 	p_hit[24] 	0.26799234545303
scalar tree_4_3_u09_r10_network.node[24].content_store 	hits[24] 	3221
scalar tree_4_3_u09_r10_network.node[24].content_store 	misses[24] 	8798
scalar tree_4_3_u09_r10_network.node[24].content_store 	decision_yes[24] 	313
scalar tree_4_3_u09_r10_network.node[24].content_store 	decision_no[24] 	8485
scalar tree_4_3_u09_r10_network.node[24].content_store 	decision_ratio[24] 	0.035576267333485
scalar tree_4_3_u09_r10_network.node[25].core_layer 	interests[25] 	11992
scalar tree_4_3_u09_r10_network.node[25].core_layer 	data[25] 	8794
scalar tree_4_3_u09_r10_network.node[25].content_store 	p_hit[25] 	0.26667778519013
scalar tree_4_3_u09_r10_network.node[25].content_store 	hits[25] 	3198
scalar tree_4_3_u09_r10_network.node[25].content_store 	misses[25] 	8794
scalar tree_4_3_u09_r10_network.node[25].content_store 	decision_yes[25] 	305
scalar tree_4_3_u09_r10_network.node[25].content_store 	decision_no[25] 	8489
scalar tree_4_3_u09_r10_network.node[25].content_store 	decision_ratio[25] 	0.034682738230612
scalar tree_4_3_u09_r10_network.node[26].core_layer 	interests[26] 	11991
scalar tree_4_3_u09_r10_network.node[26].core_layer 	data[26] 	8769
scalar tree_4_3_u09_r10_network.node[26].content_store 	p_hit[26] 	0.26870152614461
scalar tree_4_3_u09_r10_network.node[26].content_store 	hits[26] 	3222
scalar tree_4_3_u09_r10_network.node[26].content_store 	misses[26] 	8769
scalar tree_4_3_u09_r10_network.node[26].content_store 	decision_yes[26] 	236
scalar tree_4_3_u09_r10_network.node[26].content_store 	decision_no[26] 	8533
scalar tree_4_3_u09_r10_network.node[26].content_store 	decision_ratio[26] 	0.026912988938305
scalar tree_4_3_u09_r10_network.node[27].core_layer 	interests[27] 	11944
scalar tree_4_3_u09_r10_network.node[27].core_layer 	data[27] 	8837
scalar tree_4_3_u09_r10_network.node[27].content_store 	p_hit[27] 	0.2602143335566
scalar tree_4_3_u09_r10_network.node[27].content_store 	hits[27] 	3108
scalar tree_4_3_u09_r10_network.node[27].content_store 	misses[27] 	8836
scalar tree_4_3_u09_r10_network.node[27].content_store 	decision_yes[27] 	247
scalar tree_4_3_u09_r10_network.node[27].content_store 	decision_no[27] 	8590
scalar tree_4_3_u09_r10_network.node[27].content_store 	decision_ratio[27] 	0.027950661989363
scalar tree_4_3_u09_r10_network.node[28].core_layer 	interests[28] 	12178
scalar tree_4_3_u09_r10_network.node[28].core_layer 	data[28] 	8996
scalar tree_4_3_u09_r10_network.node[28].content_store 	p_hit[28] 	0.26129085235671
scalar tree_4_3_u09_r10_network.node[28].content_store 	hits[28] 	3182
scalar tree_4_3_u09_r10_network.node[28].content_store 	misses[28] 	8996
scalar tree_4_3_u09_r10_network.node[28].content_store 	decision_yes[28] 	281
scalar tree_4_3_u09_r10_network.node[28].content_store 	decision_no[28] 	8715
scalar tree_4_3_u09_r10_network.node[28].content_store 	decision_ratio[28] 	0.031236104935527
scalar tree_4_3_u09_r10_network.node[29].core_layer 	interests[29] 	12119
scalar tree_4_3_u09_r10_network.node[29].core_layer 	data[29] 	8858
scalar tree_4_3_u09_r10_network.node[29].content_store 	p_hit[29] 	0.26908160739335
scalar tree_4_3_u09_r10_network.node[29].content_store 	hits[29] 	3261
scalar tree_4_3_u09_r10_network.node[29].content_store 	misses[29] 	8858
scalar tree_4_3_u09_r10_network.node[29].content_store 	decision_yes[29] 	273
scalar tree_4_3_u09_r10_network.node[29].content_store 	decision_no[29] 	8585
scalar tree_4_3_u09_r10_network.node[29].content_store 	decision_ratio[29] 	0.030819598103409
scalar tree_4_3_u09_r10_network.node[30].core_layer 	interests[30] 	12042
scalar tree_4_3_u09_r10_network.node[30].core_layer 	data[30] 	8800
scalar tree_4_3_u09_r10_network.node[30].content_store 	p_hit[30] 	0.269224381332
scalar tree_4_3_u09_r10_network.node[30].content_store 	hits[30] 	3242
scalar tree_4_3_u09_r10_network.node[30].content_store 	misses[30] 	8800
scalar tree_4_3_u09_r10_network.node[30].content_store 	decision_yes[30] 	272
scalar tree_4_3_u09_r10_network.node[30].content_store 	decision_no[30] 	8528
scalar tree_4_3_u09_r10_network.node[30].content_store 	decision_ratio[30] 	0.030909090909091
scalar tree_4_3_u09_r10_network.node[31].core_layer 	interests[31] 	11910
scalar tree_4_3_u09_r10_network.node[31].core_layer 	data[31] 	8802
scalar tree_4_3_u09_r10_network.node[31].content_store 	p_hit[31] 	0.26095717884131
scalar tree_4_3_u09_r10_network.node[31].content_store 	hits[31] 	3108
scalar tree_4_3_u09_r10_network.node[31].content_store 	misses[31] 	8802
scalar tree_4_3_u09_r10_network.node[31].content_store 	decision_yes[31] 	338
scalar tree_4_3_u09_r10_network.node[31].content_store 	decision_no[31] 	8464
scalar tree_4_3_u09_r10_network.node[31].content_store 	decision_ratio[31] 	0.038400363553738
scalar tree_4_3_u09_r10_network.node[32].core_layer 	interests[32] 	11996
scalar tree_4_3_u09_r10_network.node[32].core_layer 	data[32] 	8714
scalar tree_4_3_u09_r10_network.node[32].content_store 	p_hit[32] 	0.27359119706569
scalar tree_4_3_u09_r10_network.node[32].content_store 	hits[32] 	3282
scalar tree_4_3_u09_r10_network.node[32].content_store 	misses[32] 	8714
scalar tree_4_3_u09_r10_network.node[32].content_store 	decision_yes[32] 	318
scalar tree_4_3_u09_r10_network.node[32].content_store 	decision_no[32] 	8396
scalar tree_4_3_u09_r10_network.node[32].content_store 	decision_ratio[32] 	0.036492999770484
scalar tree_4_3_u09_r10_network.node[33].core_layer 	interests[33] 	11903
scalar tree_4_3_u09_r10_network.node[33].core_layer 	data[33] 	8682
scalar tree_4_3_u09_r10_network.node[33].content_store 	p_hit[33] 	0.27060404939931
scalar tree_4_3_u09_r10_network.node[33].content_store 	hits[33] 	3221
scalar tree_4_3_u09_r10_network.node[33].content_store 	misses[33] 	8682
scalar tree_4_3_u09_r10_network.node[33].content_store 	decision_yes[33] 	314
scalar tree_4_3_u09_r10_network.node[33].content_store 	decision_no[33] 	8368
scalar tree_4_3_u09_r10_network.node[33].content_store 	decision_ratio[33] 	0.036166781847501
scalar tree_4_3_u09_r10_network.node[34].core_layer 	interests[34] 	11811
scalar tree_4_3_u09_r10_network.node[34].core_layer 	data[34] 	8673
scalar tree_4_3_u09_r10_network.node[34].content_store 	p_hit[34] 	0.26568453136906
scalar tree_4_3_u09_r10_network.node[34].content_store 	hits[34] 	3138
scalar tree_4_3_u09_r10_network.node[34].content_store 	misses[34] 	8673
scalar tree_4_3_u09_r10_network.node[34].content_store 	decision_yes[34] 	321
scalar tree_4_3_u09_r10_network.node[34].content_store 	decision_no[34] 	8352
scalar tree_4_3_u09_r10_network.node[34].content_store 	decision_ratio[34] 	0.037011414735386
scalar tree_4_3_u09_r10_network.node[35].core_layer 	interests[35] 	12035
scalar tree_4_3_u09_r10_network.node[35].core_layer 	data[35] 	8836
scalar tree_4_3_u09_r10_network.node[35].content_store 	p_hit[35] 	0.26580805982551
scalar tree_4_3_u09_r10_network.node[35].content_store 	hits[35] 	3199
scalar tree_4_3_u09_r10_network.node[35].content_store 	misses[35] 	8836
scalar tree_4_3_u09_r10_network.node[35].content_store 	decision_yes[35] 	257
scalar tree_4_3_u09_r10_network.node[35].content_store 	decision_no[35] 	8579
scalar tree_4_3_u09_r10_network.node[35].content_store 	decision_ratio[35] 	0.029085559076505
scalar tree_4_3_u09_r10_network.node[36].core_layer 	interests[36] 	11960
scalar tree_4_3_u09_r10_network.node[36].core_layer 	data[36] 	8857
scalar tree_4_3_u09_r10_network.node[36].content_store 	p_hit[36] 	0.25944816053512
scalar tree_4_3_u09_r10_network.node[36].content_store 	hits[36] 	3103
scalar tree_4_3_u09_r10_network.node[36].content_store 	misses[36] 	8857
scalar tree_4_3_u09_r10_network.node[36].content_store 	decision_yes[36] 	278
scalar tree_4_3_u09_r10_network.node[36].content_store 	decision_no[36] 	8579
scalar tree_4_3_u09_r10_network.node[36].content_store 	decision_ratio[36] 	0.031387603025855
scalar tree_4_3_u09_r10_network.node[37].core_layer 	interests[37] 	12074
scalar tree_4_3_u09_r10_network.node[37].core_layer 	data[37] 	8808
scalar tree_4_3_u09_r10_network.node[37].content_store 	p_hit[37] 	0.2704985920159
scalar tree_4_3_u09_r10_network.node[37].content_store 	hits[37] 	3266
scalar tree_4_3_u09_r10_network.node[37].content_store 	misses[37] 	8808
scalar tree_4_3_u09_r10_network.node[37].content_store 	decision_yes[37] 	329
scalar tree_4_3_u09_r10_network.node[37].content_store 	decision_no[37] 	8479
scalar tree_4_3_u09_r10_network.node[37].content_store 	decision_ratio[37] 	0.037352406902816
scalar tree_4_3_u09_r10_network.node[38].core_layer 	interests[38] 	11972
scalar tree_4_3_u09_r10_network.node[38].core_layer 	data[38] 	8750
scalar tree_4_3_u09_r10_network.node[38].content_store 	p_hit[38] 	0.26912796525226
scalar tree_4_3_u09_r10_network.node[38].content_store 	hits[38] 	3222
scalar tree_4_3_u09_r10_network.node[38].content_store 	misses[38] 	8750
scalar tree_4_3_u09_r10_network.node[38].content_store 	decision_yes[38] 	263
scalar tree_4_3_u09_r10_network.node[38].content_store 	decision_no[38] 	8487
scalar tree_4_3_u09_r10_network.node[38].content_store 	decision_ratio[38] 	0.030057142857143
scalar tree_4_3_u09_r10_network.node[39].core_layer 	interests[39] 	11890
scalar tree_4_3_u09_r10_network.node[39].core_layer 	data[39] 	8754
scalar tree_4_3_u09_r10_network.node[39].content_store 	p_hit[39] 	0.26375105130362
scalar tree_4_3_u09_r10_network.node[39].content_store 	hits[39] 	3136
scalar tree_4_3_u09_r10_network.node[39].content_store 	misses[39] 	8754
scalar tree_4_3_u09_r10_network.node[39].content_store 	decision_yes[39] 	184
scalar tree_4_3_u09_r10_network.node[39].content_store 	decision_no[39] 	8570
scalar tree_4_3_u09_r10_network.node[39].content_store 	decision_ratio[39] 	0.021018962759881
scalar tree_4_3_u09_r10_network.client[13] 	hdistance[13] 	2.8090939485122
scalar tree_4_3_u09_r10_network.client[13] 	downloads[13] 	11964
scalar tree_4_3_u09_r10_network.client[13] 	avg_time[13] 	0.004252922495
scalar tree_4_3_u09_r10_network.client[14] 	hdistance[14] 	2.8150037015711
scalar tree_4_3_u09_r10_network.client[14] 	downloads[14] 	12157
scalar tree_4_3_u09_r10_network.client[14] 	avg_time[14] 	0.004258613394
scalar tree_4_3_u09_r10_network.client[15] 	hdistance[15] 	2.8329681442778
scalar tree_4_3_u09_r10_network.client[15] 	downloads[15] 	11866
scalar tree_4_3_u09_r10_network.client[15] 	avg_time[15] 	0.00428482967
scalar tree_4_3_u09_r10_network.client[16] 	hdistance[16] 	2.8372498546874
scalar tree_4_3_u09_r10_network.client[16] 	downloads[16] 	12043
scalar tree_4_3_u09_r10_network.client[16] 	avg_time[16] 	0.004293378207
scalar tree_4_3_u09_r10_network.client[17] 	hdistance[17] 	2.8223028105168
scalar tree_4_3_u09_r10_network.client[17] 	downloads[17] 	12133
scalar tree_4_3_u09_r10_network.client[17] 	avg_time[17] 	0.004273630844
scalar tree_4_3_u09_r10_network.client[18] 	hdistance[18] 	2.8406317900719
scalar tree_4_3_u09_r10_network.client[18] 	downloads[18] 	11966
scalar tree_4_3_u09_r10_network.client[18] 	avg_time[18] 	0.004299426284
scalar tree_4_3_u09_r10_network.client[19] 	hdistance[19] 	2.8621373667245
scalar tree_4_3_u09_r10_network.client[19] 	downloads[19] 	12099
scalar tree_4_3_u09_r10_network.client[19] 	avg_time[19] 	0.0043299416
scalar tree_4_3_u09_r10_network.client[20] 	hdistance[20] 	2.8238471125883
scalar tree_4_3_u09_r10_network.client[20] 	downloads[20] 	12035
scalar tree_4_3_u09_r10_network.client[20] 	avg_time[20] 	0.004274197204
scalar tree_4_3_u09_r10_network.client[21] 	hdistance[21] 	2.8215962441315
scalar tree_4_3_u09_r10_network.client[21] 	downloads[21] 	11928
scalar tree_4_3_u09_r10_network.client[21] 	avg_time[21] 	0.004273806575
scalar tree_4_3_u09_r10_network.client[22] 	hdistance[22] 	2.8081110280063
scalar tree_4_3_u09_r10_network.client[22] 	downloads[22] 	12033
scalar tree_4_3_u09_r10_network.client[22] 	avg_time[22] 	0.004250474831
scalar tree_4_3_u09_r10_network.client[23] 	hdistance[23] 	2.8282436447673
scalar tree_4_3_u09_r10_network.client[23] 	downloads[23] 	12116
scalar tree_4_3_u09_r10_network.client[23] 	avg_time[23] 	0.004281608065
scalar tree_4_3_u09_r10_network.client[24] 	hdistance[24] 	2.8162076711873
scalar tree_4_3_u09_r10_network.client[24] 	downloads[24] 	12019
scalar tree_4_3_u09_r10_network.client[24] 	avg_time[24] 	0.004260584425
scalar tree_4_3_u09_r10_network.client[25] 	hdistance[25] 	2.8220480320214
scalar tree_4_3_u09_r10_network.client[25] 	downloads[25] 	11992
scalar tree_4_3_u09_r10_network.client[25] 	avg_time[25] 	0.004269224099
scalar tree_4_3_u09_r10_network.client[26] 	hdistance[26] 	2.8299558001835
scalar tree_4_3_u09_r10_network.client[26] 	downloads[26] 	11991
scalar tree_4_3_u09_r10_network.client[26] 	avg_time[26] 	0.004280540734
scalar tree_4_3_u09_r10_network.client[27] 	hdistance[27] 	2.8627040602763
scalar tree_4_3_u09_r10_network.client[27] 	downloads[27] 	11945
scalar tree_4_3_u09_r10_network.client[27] 	avg_time[27] 	0.004327330647
scalar tree_4_3_u09_r10_network.client[28] 	hdistance[28] 	2.8562982427328
scalar tree_4_3_u09_r10_network.client[28] 	downloads[28] 	12178
scalar tree_4_3_u09_r10_network.client[28] 	avg_time[28] 	0.004317947345
scalar tree_4_3_u09_r10_network.client[29] 	hdistance[29] 	2.8244079544517
scalar tree_4_3_u09_r10_network.client[29] 	downloads[29] 	12119
scalar tree_4_3_u09_r10_network.client[29] 	avg_time[29] 	0.004270481328
scalar tree_4_3_u09_r10_network.client[30] 	hdistance[30] 	2.8295133698721
scalar tree_4_3_u09_r10_network.client[30] 	downloads[30] 	12042
scalar tree_4_3_u09_r10_network.client[30] 	avg_time[30] 	0.004276030857
scalar tree_4_3_u09_r10_network.client[31] 	hdistance[31] 	2.83946263644
scalar tree_4_3_u09_r10_network.client[31] 	downloads[31] 	11910
scalar tree_4_3_u09_r10_network.client[31] 	avg_time[31] 	0.004294875275
scalar tree_4_3_u09_r10_network.client[32] 	hdistance[32] 	2.7982660886962
scalar tree_4_3_u09_r10_network.client[32] 	downloads[32] 	11996
scalar tree_4_3_u09_r10_network.client[32] 	avg_time[32] 	0.004231683922
scalar tree_4_3_u09_r10_network.client[33] 	hdistance[33] 	2.8021507183063
scalar tree_4_3_u09_r10_network.client[33] 	downloads[33] 	11903
scalar tree_4_3_u09_r10_network.client[33] 	avg_time[33] 	0.004241448736
scalar tree_4_3_u09_r10_network.client[34] 	hdistance[34] 	2.8254169841673
scalar tree_4_3_u09_r10_network.client[34] 	downloads[34] 	11811
scalar tree_4_3_u09_r10_network.client[34] 	avg_time[34] 	0.00427147488
scalar tree_4_3_u09_r10_network.client[35] 	hdistance[35] 	2.8466140423764
scalar tree_4_3_u09_r10_network.client[35] 	downloads[35] 	12035
scalar tree_4_3_u09_r10_network.client[35] 	avg_time[35] 	0.00429978928
scalar tree_4_3_u09_r10_network.client[36] 	hdistance[36] 	2.8611204013378
scalar tree_4_3_u09_r10_network.client[36] 	downloads[36] 	11960
scalar tree_4_3_u09_r10_network.client[36] 	avg_time[36] 	0.004325080636
scalar tree_4_3_u09_r10_network.client[37] 	hdistance[37] 	2.8027165810833
scalar tree_4_3_u09_r10_network.client[37] 	downloads[37] 	12074
scalar tree_4_3_u09_r10_network.client[37] 	avg_time[37] 	0.004240867304
scalar tree_4_3_u09_r10_network.client[38] 	hdistance[38] 	2.8293518209155
scalar tree_4_3_u09_r10_network.client[38] 	downloads[38] 	11972
scalar tree_4_3_u09_r10_network.client[38] 	avg_time[38] 	0.004274804901
scalar tree_4_3_u09_r10_network.client[39] 	hdistance[39] 	2.8756097560976
scalar tree_4_3_u09_r10_network.client[39] 	downloads[39] 	11890
scalar tree_4_3_u09_r10_network.client[39] 	avg_time[39] 	0.004339778358
