version 2
run General-186-20160903-00:40:47-4279
attr a 0.9
attr cd ffc0.2
attr configname General
attr cr lru
attr datetime 20160903-00:40:47
attr experiment General
attr fsize 1
attr inifile hw5115/scenario_Y/omnetp.ini
attr iterationvars "$name=tree_4_3, $un=09, $rep=7, $cd=ffc0.2, $cr=lru, $fsize=1, $a=0.9, $sl=nrr, $ttl=1000, $variance=0.05"
attr iterationvars2 "$name=tree_4_3, $un=09, $rep=7, $cd=ffc0.2, $cr=lru, $fsize=1, $a=0.9, $sl=nrr, $ttl=1000, $variance=0.05, $repetition=0"
attr measurement "$name=tree_4_3, $un=09, $rep=7, $cd=ffc0.2, $cr=lru, $fsize=1, $a=0.9, $sl=nrr, $ttl=1000, $variance=0.05"
attr name tree_4_3
attr network networks.${name}_u${un}_r${rep}_network
attr processid 4279
attr rep 7
attr repetition 0
attr replication #0
attr resultdir results
attr runnumber 186
attr seedset 7
attr sl nrr
attr ttl 1000
attr un 09
attr variance 0.05

scalar . 	a 	0.9
scalar . 	fsize 	1
scalar . 	rep 	7
scalar . 	ttl 	1000
scalar . 	un 	09
scalar . 	variance 	0.05
scalar tree_4_3_u09_r7_network.content_distribution 	repo-0 	0
scalar tree_4_3_u09_r7_network.content_distribution 	client-0 	13
scalar tree_4_3_u09_r7_network.content_distribution 	client-1 	14
scalar tree_4_3_u09_r7_network.content_distribution 	client-2 	15
scalar tree_4_3_u09_r7_network.content_distribution 	client-3 	16
scalar tree_4_3_u09_r7_network.content_distribution 	client-4 	17
scalar tree_4_3_u09_r7_network.content_distribution 	client-5 	18
scalar tree_4_3_u09_r7_network.content_distribution 	client-6 	19
scalar tree_4_3_u09_r7_network.content_distribution 	client-7 	20
scalar tree_4_3_u09_r7_network.content_distribution 	client-8 	21
scalar tree_4_3_u09_r7_network.content_distribution 	client-9 	22
scalar tree_4_3_u09_r7_network.content_distribution 	client-10 	23
scalar tree_4_3_u09_r7_network.content_distribution 	client-11 	24
scalar tree_4_3_u09_r7_network.content_distribution 	client-12 	25
scalar tree_4_3_u09_r7_network.content_distribution 	client-13 	26
scalar tree_4_3_u09_r7_network.content_distribution 	client-14 	27
scalar tree_4_3_u09_r7_network.content_distribution 	client-15 	28
scalar tree_4_3_u09_r7_network.content_distribution 	client-16 	29
scalar tree_4_3_u09_r7_network.content_distribution 	client-17 	30
scalar tree_4_3_u09_r7_network.content_distribution 	client-18 	31
scalar tree_4_3_u09_r7_network.content_distribution 	client-19 	32
scalar tree_4_3_u09_r7_network.content_distribution 	client-20 	33
scalar tree_4_3_u09_r7_network.content_distribution 	client-21 	34
scalar tree_4_3_u09_r7_network.content_distribution 	client-22 	35
scalar tree_4_3_u09_r7_network.content_distribution 	client-23 	36
scalar tree_4_3_u09_r7_network.content_distribution 	client-24 	37
scalar tree_4_3_u09_r7_network.content_distribution 	client-25 	38
scalar tree_4_3_u09_r7_network.content_distribution 	client-26 	39
scalar tree_4_3_u09_r7_network.content_distribution 	repo-0_card 	100000
scalar tree_4_3_u09_r7_network.content_distribution 	repo-0_price 	0
scalar tree_4_3_u09_r7_network.statistics 	stabilization_time 	1763.8
scalar tree_4_3_u09_r7_network.statistics 	p_hit 	0.24506815009352
scalar tree_4_3_u09_r7_network.statistics 	interests 	24531.15
scalar tree_4_3_u09_r7_network.statistics 	data 	16434.075
scalar tree_4_3_u09_r7_network.statistics 	hdistance 	2.5773131308715
scalar tree_4_3_u09_r7_network.statistics 	avg_time 	0.004059371385
scalar tree_4_3_u09_r7_network.statistics 	downloads 	323885
scalar tree_4_3_u09_r7_network.statistics 	total_cost 	0
scalar tree_4_3_u09_r7_network.statistics 	total_replicas 	100000
scalar tree_4_3_u09_r7_network.statistics 	inner_hit 	0.45241057782855
scalar tree_4_3_u09_r7_network.node[0].core_layer 	interests[0] 	180564
scalar tree_4_3_u09_r7_network.node[0].core_layer 	repo_load[0] 	177356
scalar tree_4_3_u09_r7_network.node[0].core_layer 	data[0] 	0
scalar tree_4_3_u09_r7_network.node[0].core_layer 	repo_int[0] 	177356
scalar tree_4_3_u09_r7_network.node[0].content_store 	p_hit[0] 	0.017766553687335
scalar tree_4_3_u09_r7_network.node[0].content_store 	hits[0] 	3208
scalar tree_4_3_u09_r7_network.node[0].content_store 	misses[0] 	177356
scalar tree_4_3_u09_r7_network.node[0].content_store 	decision_yes[0] 	144
scalar tree_4_3_u09_r7_network.node[0].content_store 	decision_no[0] 	177212
scalar tree_4_3_u09_r7_network.node[0].content_store 	decision_ratio[0] 	0.00081192629513521
scalar tree_4_3_u09_r7_network.node[1].core_layer 	interests[1] 	129438
scalar tree_4_3_u09_r7_network.node[1].core_layer 	data[1] 	126334
scalar tree_4_3_u09_r7_network.node[1].content_store 	p_hit[1] 	0.023972867318716
scalar tree_4_3_u09_r7_network.node[1].content_store 	hits[1] 	3103
scalar tree_4_3_u09_r7_network.node[1].content_store 	misses[1] 	126335
scalar tree_4_3_u09_r7_network.node[1].content_store 	decision_yes[1] 	117
scalar tree_4_3_u09_r7_network.node[1].content_store 	decision_no[1] 	126217
scalar tree_4_3_u09_r7_network.node[1].content_store 	decision_ratio[1] 	0.00092611648487343
scalar tree_4_3_u09_r7_network.node[2].core_layer 	interests[2] 	63330
scalar tree_4_3_u09_r7_network.node[2].core_layer 	data[2] 	59581
scalar tree_4_3_u09_r7_network.node[2].content_store 	p_hit[2] 	0.059197852518554
scalar tree_4_3_u09_r7_network.node[2].content_store 	hits[2] 	3749
scalar tree_4_3_u09_r7_network.node[2].content_store 	misses[2] 	59581
scalar tree_4_3_u09_r7_network.node[2].content_store 	decision_yes[2] 	69
scalar tree_4_3_u09_r7_network.node[2].content_store 	decision_no[2] 	59512
scalar tree_4_3_u09_r7_network.node[2].content_store 	decision_ratio[2] 	0.0011580873097128
scalar tree_4_3_u09_r7_network.node[3].core_layer 	interests[3] 	14182
scalar tree_4_3_u09_r7_network.node[3].core_layer 	data[3] 	10396
scalar tree_4_3_u09_r7_network.node[3].content_store 	p_hit[3] 	0.26695811592159
scalar tree_4_3_u09_r7_network.node[3].content_store 	hits[3] 	3786
scalar tree_4_3_u09_r7_network.node[3].content_store 	misses[3] 	10396
scalar tree_4_3_u09_r7_network.node[3].content_store 	decision_yes[3] 	73
scalar tree_4_3_u09_r7_network.node[3].content_store 	decision_no[3] 	10323
scalar tree_4_3_u09_r7_network.node[3].content_store 	decision_ratio[3] 	0.00702193151212
scalar tree_4_3_u09_r7_network.node[4].core_layer 	interests[4] 	40951
scalar tree_4_3_u09_r7_network.node[4].core_layer 	data[4] 	38287
scalar tree_4_3_u09_r7_network.node[4].content_store 	p_hit[4] 	0.065053356450392
scalar tree_4_3_u09_r7_network.node[4].content_store 	hits[4] 	2664
scalar tree_4_3_u09_r7_network.node[4].content_store 	misses[4] 	38287
scalar tree_4_3_u09_r7_network.node[4].content_store 	decision_yes[4] 	59
scalar tree_4_3_u09_r7_network.node[4].content_store 	decision_no[4] 	38228
scalar tree_4_3_u09_r7_network.node[4].content_store 	decision_ratio[4] 	0.0015409930263536
scalar tree_4_3_u09_r7_network.node[5].core_layer 	interests[5] 	29466
scalar tree_4_3_u09_r7_network.node[5].core_layer 	data[5] 	25537
scalar tree_4_3_u09_r7_network.node[5].content_store 	p_hit[5] 	0.13330618339781
scalar tree_4_3_u09_r7_network.node[5].content_store 	hits[5] 	3928
scalar tree_4_3_u09_r7_network.node[5].content_store 	misses[5] 	25538
scalar tree_4_3_u09_r7_network.node[5].content_store 	decision_yes[5] 	48
scalar tree_4_3_u09_r7_network.node[5].content_store 	decision_no[5] 	25489
scalar tree_4_3_u09_r7_network.node[5].content_store 	decision_ratio[5] 	0.0018796256412265
scalar tree_4_3_u09_r7_network.node[6].core_layer 	interests[6] 	13903
scalar tree_4_3_u09_r7_network.node[6].core_layer 	data[6] 	10279
scalar tree_4_3_u09_r7_network.node[6].content_store 	p_hit[6] 	0.26066316622312
scalar tree_4_3_u09_r7_network.node[6].content_store 	hits[6] 	3624
scalar tree_4_3_u09_r7_network.node[6].content_store 	misses[6] 	10279
scalar tree_4_3_u09_r7_network.node[6].content_store 	decision_yes[6] 	52
scalar tree_4_3_u09_r7_network.node[6].content_store 	decision_no[6] 	10227
scalar tree_4_3_u09_r7_network.node[6].content_store 	decision_ratio[6] 	0.0050588578655511
scalar tree_4_3_u09_r7_network.node[7].core_layer 	interests[7] 	35622
scalar tree_4_3_u09_r7_network.node[7].core_layer 	data[7] 	32192
scalar tree_4_3_u09_r7_network.node[7].content_store 	p_hit[7] 	0.096232665206895
scalar tree_4_3_u09_r7_network.node[7].content_store 	hits[7] 	3428
scalar tree_4_3_u09_r7_network.node[7].content_store 	misses[7] 	32194
scalar tree_4_3_u09_r7_network.node[7].content_store 	decision_yes[7] 	56
scalar tree_4_3_u09_r7_network.node[7].content_store 	decision_no[7] 	32136
scalar tree_4_3_u09_r7_network.node[7].content_store 	decision_ratio[7] 	0.0017395626242545
scalar tree_4_3_u09_r7_network.node[8].core_layer 	interests[8] 	18530
scalar tree_4_3_u09_r7_network.node[8].core_layer 	data[8] 	16106
scalar tree_4_3_u09_r7_network.node[8].content_store 	p_hit[8] 	0.13081489476525
scalar tree_4_3_u09_r7_network.node[8].content_store 	hits[8] 	2424
scalar tree_4_3_u09_r7_network.node[8].content_store 	misses[8] 	16106
scalar tree_4_3_u09_r7_network.node[8].content_store 	decision_yes[8] 	39
scalar tree_4_3_u09_r7_network.node[8].content_store 	decision_no[8] 	16067
scalar tree_4_3_u09_r7_network.node[8].content_store 	decision_ratio[8] 	0.0024214578417981
scalar tree_4_3_u09_r7_network.node[9].core_layer 	interests[9] 	30245
scalar tree_4_3_u09_r7_network.node[9].core_layer 	data[9] 	26688
scalar tree_4_3_u09_r7_network.node[9].content_store 	p_hit[9] 	0.1175731525872
scalar tree_4_3_u09_r7_network.node[9].content_store 	hits[9] 	3556
scalar tree_4_3_u09_r7_network.node[9].content_store 	misses[9] 	26689
scalar tree_4_3_u09_r7_network.node[9].content_store 	decision_yes[9] 	76
scalar tree_4_3_u09_r7_network.node[9].content_store 	decision_no[9] 	26612
scalar tree_4_3_u09_r7_network.node[9].content_store 	decision_ratio[9] 	0.002847721822542
scalar tree_4_3_u09_r7_network.node[10].core_layer 	interests[10] 	43447
scalar tree_4_3_u09_r7_network.node[10].core_layer 	data[10] 	40111
scalar tree_4_3_u09_r7_network.node[10].content_store 	p_hit[10] 	0.076760190577025
scalar tree_4_3_u09_r7_network.node[10].content_store 	hits[10] 	3335
scalar tree_4_3_u09_r7_network.node[10].content_store 	misses[10] 	40112
scalar tree_4_3_u09_r7_network.node[10].content_store 	decision_yes[10] 	70
scalar tree_4_3_u09_r7_network.node[10].content_store 	decision_no[10] 	40041
scalar tree_4_3_u09_r7_network.node[10].content_store 	decision_ratio[10] 	0.0017451571888011
scalar tree_4_3_u09_r7_network.node[11].core_layer 	interests[11] 	28992
scalar tree_4_3_u09_r7_network.node[11].core_layer 	data[11] 	25624
scalar tree_4_3_u09_r7_network.node[11].content_store 	p_hit[11] 	0.11616997792494
scalar tree_4_3_u09_r7_network.node[11].content_store 	hits[11] 	3368
scalar tree_4_3_u09_r7_network.node[11].content_store 	misses[11] 	25624
scalar tree_4_3_u09_r7_network.node[11].content_store 	decision_yes[11] 	45
scalar tree_4_3_u09_r7_network.node[11].content_store 	decision_no[11] 	25579
scalar tree_4_3_u09_r7_network.node[11].content_store 	decision_ratio[11] 	0.0017561660942866
scalar tree_4_3_u09_r7_network.node[12].core_layer 	interests[12] 	11817
scalar tree_4_3_u09_r7_network.node[12].core_layer 	data[12] 	9000
scalar tree_4_3_u09_r7_network.node[12].content_store 	p_hit[12] 	0.23838537699924
scalar tree_4_3_u09_r7_network.node[12].content_store 	hits[12] 	2817
scalar tree_4_3_u09_r7_network.node[12].content_store 	misses[12] 	9000
scalar tree_4_3_u09_r7_network.node[12].content_store 	decision_yes[12] 	41
scalar tree_4_3_u09_r7_network.node[12].content_store 	decision_no[12] 	8959
scalar tree_4_3_u09_r7_network.node[12].content_store 	decision_ratio[12] 	0.0045555555555556
scalar tree_4_3_u09_r7_network.node[13].core_layer 	interests[13] 	12208
scalar tree_4_3_u09_r7_network.node[13].core_layer 	data[13] 	8521
scalar tree_4_3_u09_r7_network.node[13].content_store 	p_hit[13] 	0.30201507208388
scalar tree_4_3_u09_r7_network.node[13].content_store 	hits[13] 	3687
scalar tree_4_3_u09_r7_network.node[13].content_store 	misses[13] 	8521
scalar tree_4_3_u09_r7_network.node[13].content_store 	decision_yes[13] 	21
scalar tree_4_3_u09_r7_network.node[13].content_store 	decision_no[13] 	8500
scalar tree_4_3_u09_r7_network.node[13].content_store 	decision_ratio[13] 	0.002464499471893
scalar tree_4_3_u09_r7_network.node[14].core_layer 	interests[14] 	12826
scalar tree_4_3_u09_r7_network.node[14].core_layer 	data[14] 	8824
scalar tree_4_3_u09_r7_network.node[14].content_store 	p_hit[14] 	0.31202245438952
scalar tree_4_3_u09_r7_network.node[14].content_store 	hits[14] 	4002
scalar tree_4_3_u09_r7_network.node[14].content_store 	misses[14] 	8824
scalar tree_4_3_u09_r7_network.node[14].content_store 	decision_yes[14] 	24
scalar tree_4_3_u09_r7_network.node[14].content_store 	decision_no[14] 	8800
scalar tree_4_3_u09_r7_network.node[14].content_store 	decision_ratio[14] 	0.0027198549410698
scalar tree_4_3_u09_r7_network.node[15].core_layer 	interests[15] 	12674
scalar tree_4_3_u09_r7_network.node[15].core_layer 	data[15] 	8718
scalar tree_4_3_u09_r7_network.node[15].content_store 	p_hit[15] 	0.3122139813792
scalar tree_4_3_u09_r7_network.node[15].content_store 	hits[15] 	3957
scalar tree_4_3_u09_r7_network.node[15].content_store 	misses[15] 	8717
scalar tree_4_3_u09_r7_network.node[15].content_store 	decision_yes[15] 	16
scalar tree_4_3_u09_r7_network.node[15].content_store 	decision_no[15] 	8702
scalar tree_4_3_u09_r7_network.node[15].content_store 	decision_ratio[15] 	0.0018352833218628
scalar tree_4_3_u09_r7_network.node[16].core_layer 	interests[16] 	12709
scalar tree_4_3_u09_r7_network.node[16].core_layer 	data[16] 	8798
scalar tree_4_3_u09_r7_network.node[16].content_store 	p_hit[16] 	0.30773467621371
scalar tree_4_3_u09_r7_network.node[16].content_store 	hits[16] 	3911
scalar tree_4_3_u09_r7_network.node[16].content_store 	misses[16] 	8798
scalar tree_4_3_u09_r7_network.node[16].content_store 	decision_yes[16] 	29
scalar tree_4_3_u09_r7_network.node[16].content_store 	decision_no[16] 	8769
scalar tree_4_3_u09_r7_network.node[16].content_store 	decision_ratio[16] 	0.0032962036826551
scalar tree_4_3_u09_r7_network.node[17].core_layer 	interests[17] 	12331
scalar tree_4_3_u09_r7_network.node[17].core_layer 	data[17] 	8727
scalar tree_4_3_u09_r7_network.node[17].content_store 	p_hit[17] 	0.29235260725002
scalar tree_4_3_u09_r7_network.node[17].content_store 	hits[17] 	3605
scalar tree_4_3_u09_r7_network.node[17].content_store 	misses[17] 	8726
scalar tree_4_3_u09_r7_network.node[17].content_store 	decision_yes[17] 	16
scalar tree_4_3_u09_r7_network.node[17].content_store 	decision_no[17] 	8711
scalar tree_4_3_u09_r7_network.node[17].content_store 	decision_ratio[17] 	0.0018333906267904
scalar tree_4_3_u09_r7_network.node[18].core_layer 	interests[18] 	13076
scalar tree_4_3_u09_r7_network.node[18].core_layer 	data[18] 	8993
scalar tree_4_3_u09_r7_network.node[18].content_store 	p_hit[18] 	0.31225145304374
scalar tree_4_3_u09_r7_network.node[18].content_store 	hits[18] 	4083
scalar tree_4_3_u09_r7_network.node[18].content_store 	misses[18] 	8993
scalar tree_4_3_u09_r7_network.node[18].content_store 	decision_yes[18] 	21
scalar tree_4_3_u09_r7_network.node[18].content_store 	decision_no[18] 	8972
scalar tree_4_3_u09_r7_network.node[18].content_store 	decision_ratio[18] 	0.0023351495607695
scalar tree_4_3_u09_r7_network.node[19].core_layer 	interests[19] 	12801
scalar tree_4_3_u09_r7_network.node[19].core_layer 	data[19] 	8795
scalar tree_4_3_u09_r7_network.node[19].content_store 	p_hit[19] 	0.31294430122647
scalar tree_4_3_u09_r7_network.node[19].content_store 	hits[19] 	4006
scalar tree_4_3_u09_r7_network.node[19].content_store 	misses[19] 	8795
scalar tree_4_3_u09_r7_network.node[19].content_store 	decision_yes[19] 	24
scalar tree_4_3_u09_r7_network.node[19].content_store 	decision_no[19] 	8771
scalar tree_4_3_u09_r7_network.node[19].content_store 	decision_ratio[19] 	0.0027288231949972
scalar tree_4_3_u09_r7_network.node[20].core_layer 	interests[20] 	12779
scalar tree_4_3_u09_r7_network.node[20].core_layer 	data[20] 	8780
scalar tree_4_3_u09_r7_network.node[20].content_store 	p_hit[20] 	0.31285703106659
scalar tree_4_3_u09_r7_network.node[20].content_store 	hits[20] 	3998
scalar tree_4_3_u09_r7_network.node[20].content_store 	misses[20] 	8781
scalar tree_4_3_u09_r7_network.node[20].content_store 	decision_yes[20] 	18
scalar tree_4_3_u09_r7_network.node[20].content_store 	decision_no[20] 	8762
scalar tree_4_3_u09_r7_network.node[20].content_store 	decision_ratio[20] 	0.0020501138952164
scalar tree_4_3_u09_r7_network.node[21].core_layer 	interests[21] 	12329
scalar tree_4_3_u09_r7_network.node[21].core_layer 	data[21] 	8647
scalar tree_4_3_u09_r7_network.node[21].content_store 	p_hit[21] 	0.29864547003001
scalar tree_4_3_u09_r7_network.node[21].content_store 	hits[21] 	3682
scalar tree_4_3_u09_r7_network.node[21].content_store 	misses[21] 	8647
scalar tree_4_3_u09_r7_network.node[21].content_store 	decision_yes[21] 	19
scalar tree_4_3_u09_r7_network.node[21].content_store 	decision_no[21] 	8628
scalar tree_4_3_u09_r7_network.node[21].content_store 	decision_ratio[21] 	0.0021972938591419
scalar tree_4_3_u09_r7_network.node[22].core_layer 	interests[22] 	12516
scalar tree_4_3_u09_r7_network.node[22].core_layer 	data[22] 	8687
scalar tree_4_3_u09_r7_network.node[22].content_store 	p_hit[22] 	0.30592841163311
scalar tree_4_3_u09_r7_network.node[22].content_store 	hits[22] 	3829
scalar tree_4_3_u09_r7_network.node[22].content_store 	misses[22] 	8687
scalar tree_4_3_u09_r7_network.node[22].content_store 	decision_yes[22] 	25
scalar tree_4_3_u09_r7_network.node[22].content_store 	decision_no[22] 	8662
scalar tree_4_3_u09_r7_network.node[22].content_store 	decision_ratio[22] 	0.0028778634741568
scalar tree_4_3_u09_r7_network.node[23].core_layer 	interests[23] 	12704
scalar tree_4_3_u09_r7_network.node[23].core_layer 	data[23] 	8834
scalar tree_4_3_u09_r7_network.node[23].content_store 	p_hit[23] 	0.30462846347607
scalar tree_4_3_u09_r7_network.node[23].content_store 	hits[23] 	3870
scalar tree_4_3_u09_r7_network.node[23].content_store 	misses[23] 	8834
scalar tree_4_3_u09_r7_network.node[23].content_store 	decision_yes[23] 	23
scalar tree_4_3_u09_r7_network.node[23].content_store 	decision_no[23] 	8811
scalar tree_4_3_u09_r7_network.node[23].content_store 	decision_ratio[23] 	0.0026035770885216
scalar tree_4_3_u09_r7_network.node[24].core_layer 	interests[24] 	12994
scalar tree_4_3_u09_r7_network.node[24].core_layer 	data[24] 	8853
scalar tree_4_3_u09_r7_network.node[24].content_store 	p_hit[24] 	0.31868554717562
scalar tree_4_3_u09_r7_network.node[24].content_store 	hits[24] 	4141
scalar tree_4_3_u09_r7_network.node[24].content_store 	misses[24] 	8853
scalar tree_4_3_u09_r7_network.node[24].content_store 	decision_yes[24] 	25
scalar tree_4_3_u09_r7_network.node[24].content_store 	decision_no[24] 	8828
scalar tree_4_3_u09_r7_network.node[24].content_store 	decision_ratio[24] 	0.0028239015023156
scalar tree_4_3_u09_r7_network.node[25].core_layer 	interests[25] 	12595
scalar tree_4_3_u09_r7_network.node[25].core_layer 	data[25] 	8656
scalar tree_4_3_u09_r7_network.node[25].content_store 	p_hit[25] 	0.31266375545852
scalar tree_4_3_u09_r7_network.node[25].content_store 	hits[25] 	3938
scalar tree_4_3_u09_r7_network.node[25].content_store 	misses[25] 	8657
scalar tree_4_3_u09_r7_network.node[25].content_store 	decision_yes[25] 	21
scalar tree_4_3_u09_r7_network.node[25].content_store 	decision_no[25] 	8635
scalar tree_4_3_u09_r7_network.node[25].content_store 	decision_ratio[25] 	0.0024260628465804
scalar tree_4_3_u09_r7_network.node[26].core_layer 	interests[26] 	12078
scalar tree_4_3_u09_r7_network.node[26].core_layer 	data[26] 	8624
scalar tree_4_3_u09_r7_network.node[26].content_store 	p_hit[26] 	0.28597449908925
scalar tree_4_3_u09_r7_network.node[26].content_store 	hits[26] 	3454
scalar tree_4_3_u09_r7_network.node[26].content_store 	misses[26] 	8624
scalar tree_4_3_u09_r7_network.node[26].content_store 	decision_yes[26] 	19
scalar tree_4_3_u09_r7_network.node[26].content_store 	decision_no[26] 	8605
scalar tree_4_3_u09_r7_network.node[26].content_store 	decision_ratio[26] 	0.0022031539888683
scalar tree_4_3_u09_r7_network.node[27].core_layer 	interests[27] 	12858
scalar tree_4_3_u09_r7_network.node[27].core_layer 	data[27] 	8911
scalar tree_4_3_u09_r7_network.node[27].content_store 	p_hit[27] 	0.30696842432727
scalar tree_4_3_u09_r7_network.node[27].content_store 	hits[27] 	3947
scalar tree_4_3_u09_r7_network.node[27].content_store 	misses[27] 	8911
scalar tree_4_3_u09_r7_network.node[27].content_store 	decision_yes[27] 	18
scalar tree_4_3_u09_r7_network.node[27].content_store 	decision_no[27] 	8893
scalar tree_4_3_u09_r7_network.node[27].content_store 	decision_ratio[27] 	0.0020199753114129
scalar tree_4_3_u09_r7_network.node[28].core_layer 	interests[28] 	12430
scalar tree_4_3_u09_r7_network.node[28].core_layer 	data[28] 	8794
scalar tree_4_3_u09_r7_network.node[28].content_store 	p_hit[28] 	0.29251810136766
scalar tree_4_3_u09_r7_network.node[28].content_store 	hits[28] 	3636
scalar tree_4_3_u09_r7_network.node[28].content_store 	misses[28] 	8794
scalar tree_4_3_u09_r7_network.node[28].content_store 	decision_yes[28] 	19
scalar tree_4_3_u09_r7_network.node[28].content_store 	decision_no[28] 	8775
scalar tree_4_3_u09_r7_network.node[28].content_store 	decision_ratio[28] 	0.0021605640209234
scalar tree_4_3_u09_r7_network.node[29].core_layer 	interests[29] 	12488
scalar tree_4_3_u09_r7_network.node[29].core_layer 	data[29] 	8744
scalar tree_4_3_u09_r7_network.node[29].content_store 	p_hit[29] 	0.29980781550288
scalar tree_4_3_u09_r7_network.node[29].content_store 	hits[29] 	3744
scalar tree_4_3_u09_r7_network.node[29].content_store 	misses[29] 	8744
scalar tree_4_3_u09_r7_network.node[29].content_store 	decision_yes[29] 	23
scalar tree_4_3_u09_r7_network.node[29].content_store 	decision_no[29] 	8721
scalar tree_4_3_u09_r7_network.node[29].content_store 	decision_ratio[29] 	0.0026303751143641
scalar tree_4_3_u09_r7_network.node[30].core_layer 	interests[30] 	12676
scalar tree_4_3_u09_r7_network.node[30].core_layer 	data[30] 	8920
scalar tree_4_3_u09_r7_network.node[30].content_store 	p_hit[30] 	0.29630798359104
scalar tree_4_3_u09_r7_network.node[30].content_store 	hits[30] 	3756
scalar tree_4_3_u09_r7_network.node[30].content_store 	misses[30] 	8920
scalar tree_4_3_u09_r7_network.node[30].content_store 	decision_yes[30] 	24
scalar tree_4_3_u09_r7_network.node[30].content_store 	decision_no[30] 	8896
scalar tree_4_3_u09_r7_network.node[30].content_store 	decision_ratio[30] 	0.0026905829596413
scalar tree_4_3_u09_r7_network.node[31].core_layer 	interests[31] 	12611
scalar tree_4_3_u09_r7_network.node[31].core_layer 	data[31] 	8847
scalar tree_4_3_u09_r7_network.node[31].content_store 	p_hit[31] 	0.29846959004044
scalar tree_4_3_u09_r7_network.node[31].content_store 	hits[31] 	3764
scalar tree_4_3_u09_r7_network.node[31].content_store 	misses[31] 	8847
scalar tree_4_3_u09_r7_network.node[31].content_store 	decision_yes[31] 	30
scalar tree_4_3_u09_r7_network.node[31].content_store 	decision_no[31] 	8817
scalar tree_4_3_u09_r7_network.node[31].content_store 	decision_ratio[31] 	0.003390979993218
scalar tree_4_3_u09_r7_network.node[32].core_layer 	interests[32] 	12732
scalar tree_4_3_u09_r7_network.node[32].core_layer 	data[32] 	8849
scalar tree_4_3_u09_r7_network.node[32].content_store 	p_hit[32] 	0.30497957901351
scalar tree_4_3_u09_r7_network.node[32].content_store 	hits[32] 	3883
scalar tree_4_3_u09_r7_network.node[32].content_store 	misses[32] 	8849
scalar tree_4_3_u09_r7_network.node[32].content_store 	decision_yes[32] 	22
scalar tree_4_3_u09_r7_network.node[32].content_store 	decision_no[32] 	8827
scalar tree_4_3_u09_r7_network.node[32].content_store 	decision_ratio[32] 	0.0024861566278676
scalar tree_4_3_u09_r7_network.node[33].core_layer 	interests[33] 	12643
scalar tree_4_3_u09_r7_network.node[33].core_layer 	data[33] 	8709
scalar tree_4_3_u09_r7_network.node[33].content_store 	p_hit[33] 	0.31116032587202
scalar tree_4_3_u09_r7_network.node[33].content_store 	hits[33] 	3934
scalar tree_4_3_u09_r7_network.node[33].content_store 	misses[33] 	8709
scalar tree_4_3_u09_r7_network.node[33].content_store 	decision_yes[33] 	24
scalar tree_4_3_u09_r7_network.node[33].content_store 	decision_no[33] 	8685
scalar tree_4_3_u09_r7_network.node[33].content_store 	decision_ratio[33] 	0.0027557698932139
scalar tree_4_3_u09_r7_network.node[34].core_layer 	interests[34] 	12804
scalar tree_4_3_u09_r7_network.node[34].core_layer 	data[34] 	8971
scalar tree_4_3_u09_r7_network.node[34].content_store 	p_hit[34] 	0.29935957513277
scalar tree_4_3_u09_r7_network.node[34].content_store 	hits[34] 	3833
scalar tree_4_3_u09_r7_network.node[34].content_store 	misses[34] 	8971
scalar tree_4_3_u09_r7_network.node[34].content_store 	decision_yes[34] 	24
scalar tree_4_3_u09_r7_network.node[34].content_store 	decision_no[34] 	8947
scalar tree_4_3_u09_r7_network.node[34].content_store 	decision_ratio[34] 	0.0026752870360049
scalar tree_4_3_u09_r7_network.node[35].core_layer 	interests[35] 	12465
scalar tree_4_3_u09_r7_network.node[35].core_layer 	data[35] 	8940
scalar tree_4_3_u09_r7_network.node[35].content_store 	p_hit[35] 	0.28279181708785
scalar tree_4_3_u09_r7_network.node[35].content_store 	hits[35] 	3525
scalar tree_4_3_u09_r7_network.node[35].content_store 	misses[35] 	8940
scalar tree_4_3_u09_r7_network.node[35].content_store 	decision_yes[35] 	18
scalar tree_4_3_u09_r7_network.node[35].content_store 	decision_no[35] 	8922
scalar tree_4_3_u09_r7_network.node[35].content_store 	decision_ratio[35] 	0.0020134228187919
scalar tree_4_3_u09_r7_network.node[36].core_layer 	interests[36] 	12808
scalar tree_4_3_u09_r7_network.node[36].core_layer 	data[36] 	8764
scalar tree_4_3_u09_r7_network.node[36].content_store 	p_hit[36] 	0.31581823860087
scalar tree_4_3_u09_r7_network.node[36].content_store 	hits[36] 	4045
scalar tree_4_3_u09_r7_network.node[36].content_store 	misses[36] 	8763
scalar tree_4_3_u09_r7_network.node[36].content_store 	decision_yes[36] 	21
scalar tree_4_3_u09_r7_network.node[36].content_store 	decision_no[36] 	8743
scalar tree_4_3_u09_r7_network.node[36].content_store 	decision_ratio[36] 	0.0023961661341853
scalar tree_4_3_u09_r7_network.node[37].core_layer 	interests[37] 	12691
scalar tree_4_3_u09_r7_network.node[37].core_layer 	data[37] 	8842
scalar tree_4_3_u09_r7_network.node[37].content_store 	p_hit[37] 	0.30328579308171
scalar tree_4_3_u09_r7_network.node[37].content_store 	hits[37] 	3849
scalar tree_4_3_u09_r7_network.node[37].content_store 	misses[37] 	8842
scalar tree_4_3_u09_r7_network.node[37].content_store 	decision_yes[37] 	24
scalar tree_4_3_u09_r7_network.node[37].content_store 	decision_no[37] 	8818
scalar tree_4_3_u09_r7_network.node[37].content_store 	decision_ratio[37] 	0.0027143180275956
scalar tree_4_3_u09_r7_network.node[38].core_layer 	interests[38] 	12698
scalar tree_4_3_u09_r7_network.node[38].core_layer 	data[38] 	8783
scalar tree_4_3_u09_r7_network.node[38].content_store 	p_hit[38] 	0.30831627027878
scalar tree_4_3_u09_r7_network.node[38].content_store 	hits[38] 	3915
scalar tree_4_3_u09_r7_network.node[38].content_store 	misses[38] 	8783
scalar tree_4_3_u09_r7_network.node[38].content_store 	decision_yes[38] 	34
scalar tree_4_3_u09_r7_network.node[38].content_store 	decision_no[38] 	8749
scalar tree_4_3_u09_r7_network.node[38].content_store 	decision_ratio[38] 	0.0038711146533075
scalar tree_4_3_u09_r7_network.node[39].core_layer 	interests[39] 	12235
scalar tree_4_3_u09_r7_network.node[39].core_layer 	data[39] 	8697
scalar tree_4_3_u09_r7_network.node[39].content_store 	p_hit[39] 	0.28917041275031
scalar tree_4_3_u09_r7_network.node[39].content_store 	hits[39] 	3538
scalar tree_4_3_u09_r7_network.node[39].content_store 	misses[39] 	8697
scalar tree_4_3_u09_r7_network.node[39].content_store 	decision_yes[39] 	22
scalar tree_4_3_u09_r7_network.node[39].content_store 	decision_no[39] 	8675
scalar tree_4_3_u09_r7_network.node[39].content_store 	decision_ratio[39] 	0.0025296079107738
scalar tree_4_3_u09_r7_network.client[13] 	hdistance[13] 	2.6170447786558
scalar tree_4_3_u09_r7_network.client[13] 	downloads[13] 	11769
scalar tree_4_3_u09_r7_network.client[13] 	avg_time[13] 	0.004117764062
scalar tree_4_3_u09_r7_network.client[14] 	hdistance[14] 	2.5509662436759
scalar tree_4_3_u09_r7_network.client[14] 	downloads[14] 	12057
scalar tree_4_3_u09_r7_network.client[14] 	avg_time[14] 	0.004018409518
scalar tree_4_3_u09_r7_network.client[15] 	hdistance[15] 	2.5594499413047
scalar tree_4_3_u09_r7_network.client[15] 	downloads[15] 	11926
scalar tree_4_3_u09_r7_network.client[15] 	avg_time[15] 	0.00401576088
scalar tree_4_3_u09_r7_network.client[16] 	hdistance[16] 	2.5626827027478
scalar tree_4_3_u09_r7_network.client[16] 	downloads[16] 	11973
scalar tree_4_3_u09_r7_network.client[16] 	avg_time[16] 	0.004041423542
scalar tree_4_3_u09_r7_network.client[17] 	hdistance[17] 	2.6045595507501
scalar tree_4_3_u09_r7_network.client[17] 	downloads[17] 	11931
scalar tree_4_3_u09_r7_network.client[17] 	avg_time[17] 	0.004123205443
scalar tree_4_3_u09_r7_network.client[18] 	hdistance[18] 	2.5433417597651
scalar tree_4_3_u09_r7_network.client[18] 	downloads[18] 	12263
scalar tree_4_3_u09_r7_network.client[18] 	avg_time[18] 	0.003999675546
scalar tree_4_3_u09_r7_network.client[19] 	hdistance[19] 	2.5645431684828
scalar tree_4_3_u09_r7_network.client[19] 	downloads[19] 	11930
scalar tree_4_3_u09_r7_network.client[19] 	avg_time[19] 	0.004032352437
scalar tree_4_3_u09_r7_network.client[20] 	hdistance[20] 	2.5326884589726
scalar tree_4_3_u09_r7_network.client[20] 	downloads[20] 	11992
scalar tree_4_3_u09_r7_network.client[20] 	avg_time[20] 	0.003981105032
scalar tree_4_3_u09_r7_network.client[21] 	hdistance[21] 	2.5615152531009
scalar tree_4_3_u09_r7_network.client[21] 	downloads[21] 	11932
scalar tree_4_3_u09_r7_network.client[21] 	avg_time[21] 	0.00404776774
scalar tree_4_3_u09_r7_network.client[22] 	hdistance[22] 	2.5803212851406
scalar tree_4_3_u09_r7_network.client[22] 	downloads[22] 	11952
scalar tree_4_3_u09_r7_network.client[22] 	avg_time[22] 	0.00408667706
scalar tree_4_3_u09_r7_network.client[23] 	hdistance[23] 	2.5727447859955
scalar tree_4_3_u09_r7_network.client[23] 	downloads[23] 	11939
scalar tree_4_3_u09_r7_network.client[23] 	avg_time[23] 	0.004055780576
scalar tree_4_3_u09_r7_network.client[24] 	hdistance[24] 	2.5441590720796
scalar tree_4_3_u09_r7_network.client[24] 	downloads[24] 	12070
scalar tree_4_3_u09_r7_network.client[24] 	avg_time[24] 	0.00400032835
scalar tree_4_3_u09_r7_network.client[25] 	hdistance[25] 	2.5336591119724
scalar tree_4_3_u09_r7_network.client[25] 	downloads[25] 	11869
scalar tree_4_3_u09_r7_network.client[25] 	avg_time[25] 	0.003996672058
scalar tree_4_3_u09_r7_network.client[26] 	hdistance[26] 	2.6459943929998
scalar tree_4_3_u09_r7_network.client[26] 	downloads[26] 	11771
scalar tree_4_3_u09_r7_network.client[26] 	avg_time[26] 	0.004164808894
scalar tree_4_3_u09_r7_network.client[27] 	hdistance[27] 	2.5752380952381
scalar tree_4_3_u09_r7_network.client[27] 	downloads[27] 	12075
scalar tree_4_3_u09_r7_network.client[27] 	avg_time[27] 	0.004053661587
scalar tree_4_3_u09_r7_network.client[28] 	hdistance[28] 	2.6179841070682
scalar tree_4_3_u09_r7_network.client[28] 	downloads[28] 	11955
scalar tree_4_3_u09_r7_network.client[28] 	avg_time[28] 	0.004128334609
scalar tree_4_3_u09_r7_network.client[29] 	hdistance[29] 	2.5897073495178
scalar tree_4_3_u09_r7_network.client[29] 	downloads[29] 	12028
scalar tree_4_3_u09_r7_network.client[29] 	avg_time[29] 	0.004087792141
scalar tree_4_3_u09_r7_network.client[30] 	hdistance[30] 	2.616164921466
scalar tree_4_3_u09_r7_network.client[30] 	downloads[30] 	12224
scalar tree_4_3_u09_r7_network.client[30] 	avg_time[30] 	0.004118616059
scalar tree_4_3_u09_r7_network.client[31] 	hdistance[31] 	2.6114934903392
scalar tree_4_3_u09_r7_network.client[31] 	downloads[31] 	12059
scalar tree_4_3_u09_r7_network.client[31] 	avg_time[31] 	0.004132180437
scalar tree_4_3_u09_r7_network.client[32] 	hdistance[32] 	2.5480872956601
scalar tree_4_3_u09_r7_network.client[32] 	downloads[32] 	12051
scalar tree_4_3_u09_r7_network.client[32] 	avg_time[32] 	0.004006137498
scalar tree_4_3_u09_r7_network.client[33] 	hdistance[33] 	2.5447311107388
scalar tree_4_3_u09_r7_network.client[33] 	downloads[33] 	11938
scalar tree_4_3_u09_r7_network.client[33] 	avg_time[33] 	0.004004352837
scalar tree_4_3_u09_r7_network.client[34] 	hdistance[34] 	2.5728123189006
scalar tree_4_3_u09_r7_network.client[34] 	downloads[34] 	12079
scalar tree_4_3_u09_r7_network.client[34] 	avg_time[34] 	0.004057458284
scalar tree_4_3_u09_r7_network.client[35] 	hdistance[35] 	2.6406793703397
scalar tree_4_3_u09_r7_network.client[35] 	downloads[35] 	12070
scalar tree_4_3_u09_r7_network.client[35] 	avg_time[35] 	0.004164040072
scalar tree_4_3_u09_r7_network.client[36] 	hdistance[36] 	2.5500747384155
scalar tree_4_3_u09_r7_network.client[36] 	downloads[36] 	12042
scalar tree_4_3_u09_r7_network.client[36] 	avg_time[36] 	0.004004813476
scalar tree_4_3_u09_r7_network.client[37] 	hdistance[37] 	2.5674639553296
scalar tree_4_3_u09_r7_network.client[37] 	downloads[37] 	11999
scalar tree_4_3_u09_r7_network.client[37] 	avg_time[37] 	0.004041333776
scalar tree_4_3_u09_r7_network.client[38] 	hdistance[38] 	2.5503714214172
scalar tree_4_3_u09_r7_network.client[38] 	downloads[38] 	11981
scalar tree_4_3_u09_r7_network.client[38] 	avg_time[38] 	0.004007008109
scalar tree_4_3_u09_r7_network.client[39] 	hdistance[39] 	2.6289758534555
scalar tree_4_3_u09_r7_network.client[39] 	downloads[39] 	12010
scalar tree_4_3_u09_r7_network.client[39] 	avg_time[39] 	0.004115567372
