version 2
run General-192-20160903-00:54:24-4279
attr a 0.9
attr cd ffc0.2
attr configname General
attr cr lru
attr datetime 20160903-00:54:24
attr experiment General
attr fsize 1
attr inifile hw5115/scenario_Y/omnetp.ini
attr iterationvars "$name=tree_4_3, $un=09, $rep=13, $cd=ffc0.2, $cr=lru, $fsize=1, $a=0.9, $sl=nrr, $ttl=1000, $variance=0.05"
attr iterationvars2 "$name=tree_4_3, $un=09, $rep=13, $cd=ffc0.2, $cr=lru, $fsize=1, $a=0.9, $sl=nrr, $ttl=1000, $variance=0.05, $repetition=0"
attr measurement "$name=tree_4_3, $un=09, $rep=13, $cd=ffc0.2, $cr=lru, $fsize=1, $a=0.9, $sl=nrr, $ttl=1000, $variance=0.05"
attr name tree_4_3
attr network networks.${name}_u${un}_r${rep}_network
attr processid 4279
attr rep 13
attr repetition 0
attr replication #0
attr resultdir results
attr runnumber 192
attr seedset 13
attr sl nrr
attr ttl 1000
attr un 09
attr variance 0.05

scalar . 	a 	0.9
scalar . 	fsize 	1
scalar . 	rep 	13
scalar . 	ttl 	1000
scalar . 	un 	09
scalar . 	variance 	0.05
scalar tree_4_3_u09_r13_network.content_distribution 	repo-0 	0
scalar tree_4_3_u09_r13_network.content_distribution 	client-0 	13
scalar tree_4_3_u09_r13_network.content_distribution 	client-1 	14
scalar tree_4_3_u09_r13_network.content_distribution 	client-2 	15
scalar tree_4_3_u09_r13_network.content_distribution 	client-3 	16
scalar tree_4_3_u09_r13_network.content_distribution 	client-4 	17
scalar tree_4_3_u09_r13_network.content_distribution 	client-5 	18
scalar tree_4_3_u09_r13_network.content_distribution 	client-6 	19
scalar tree_4_3_u09_r13_network.content_distribution 	client-7 	20
scalar tree_4_3_u09_r13_network.content_distribution 	client-8 	21
scalar tree_4_3_u09_r13_network.content_distribution 	client-9 	22
scalar tree_4_3_u09_r13_network.content_distribution 	client-10 	23
scalar tree_4_3_u09_r13_network.content_distribution 	client-11 	24
scalar tree_4_3_u09_r13_network.content_distribution 	client-12 	25
scalar tree_4_3_u09_r13_network.content_distribution 	client-13 	26
scalar tree_4_3_u09_r13_network.content_distribution 	client-14 	27
scalar tree_4_3_u09_r13_network.content_distribution 	client-15 	28
scalar tree_4_3_u09_r13_network.content_distribution 	client-16 	29
scalar tree_4_3_u09_r13_network.content_distribution 	client-17 	30
scalar tree_4_3_u09_r13_network.content_distribution 	client-18 	31
scalar tree_4_3_u09_r13_network.content_distribution 	client-19 	32
scalar tree_4_3_u09_r13_network.content_distribution 	client-20 	33
scalar tree_4_3_u09_r13_network.content_distribution 	client-21 	34
scalar tree_4_3_u09_r13_network.content_distribution 	client-22 	35
scalar tree_4_3_u09_r13_network.content_distribution 	client-23 	36
scalar tree_4_3_u09_r13_network.content_distribution 	client-24 	37
scalar tree_4_3_u09_r13_network.content_distribution 	client-25 	38
scalar tree_4_3_u09_r13_network.content_distribution 	client-26 	39
scalar tree_4_3_u09_r13_network.content_distribution 	repo-0_card 	100000
scalar tree_4_3_u09_r13_network.content_distribution 	repo-0_price 	0
scalar tree_4_3_u09_r13_network.statistics 	stabilization_time 	2377.4
scalar tree_4_3_u09_r13_network.statistics 	p_hit 	0.24503467562811
scalar tree_4_3_u09_r13_network.statistics 	interests 	24419.525
scalar tree_4_3_u09_r13_network.statistics 	data 	16348.5
scalar tree_4_3_u09_r13_network.statistics 	hdistance 	2.5826003093939
scalar tree_4_3_u09_r13_network.statistics 	avg_time 	0.004051036011
scalar tree_4_3_u09_r13_network.statistics 	downloads 	322853
scalar tree_4_3_u09_r13_network.statistics 	total_cost 	0
scalar tree_4_3_u09_r13_network.statistics 	total_replicas 	100000
scalar tree_4_3_u09_r13_network.statistics 	inner_hit 	0.44292294016162
scalar tree_4_3_u09_r13_network.node[0].core_layer 	interests[0] 	183057
scalar tree_4_3_u09_r13_network.node[0].core_layer 	repo_load[0] 	179854
scalar tree_4_3_u09_r13_network.node[0].core_layer 	data[0] 	0
scalar tree_4_3_u09_r13_network.node[0].core_layer 	repo_int[0] 	179854
scalar tree_4_3_u09_r13_network.node[0].content_store 	p_hit[0] 	0.017497282267272
scalar tree_4_3_u09_r13_network.node[0].content_store 	hits[0] 	3203
scalar tree_4_3_u09_r13_network.node[0].content_store 	misses[0] 	179854
scalar tree_4_3_u09_r13_network.node[0].content_store 	decision_yes[0] 	145
scalar tree_4_3_u09_r13_network.node[0].content_store 	decision_no[0] 	179709
scalar tree_4_3_u09_r13_network.node[0].content_store 	decision_ratio[0] 	0.0008062094810235
scalar tree_4_3_u09_r13_network.node[1].core_layer 	interests[1] 	100991
scalar tree_4_3_u09_r13_network.node[1].core_layer 	data[1] 	98483
scalar tree_4_3_u09_r13_network.node[1].content_store 	p_hit[1] 	0.024863601707083
scalar tree_4_3_u09_r13_network.node[1].content_store 	hits[1] 	2511
scalar tree_4_3_u09_r13_network.node[1].content_store 	misses[1] 	98480
scalar tree_4_3_u09_r13_network.node[1].content_store 	decision_yes[1] 	76
scalar tree_4_3_u09_r13_network.node[1].content_store 	decision_no[1] 	98407
scalar tree_4_3_u09_r13_network.node[1].content_store 	decision_ratio[1] 	0.00077170679203517
scalar tree_4_3_u09_r13_network.node[2].core_layer 	interests[2] 	91798
scalar tree_4_3_u09_r13_network.node[2].core_layer 	data[2] 	88255
scalar tree_4_3_u09_r13_network.node[2].content_store 	p_hit[2] 	0.038595612104839
scalar tree_4_3_u09_r13_network.node[2].content_store 	hits[2] 	3543
scalar tree_4_3_u09_r13_network.node[2].content_store 	misses[2] 	88255
scalar tree_4_3_u09_r13_network.node[2].content_store 	decision_yes[2] 	87
scalar tree_4_3_u09_r13_network.node[2].content_store 	decision_no[2] 	88168
scalar tree_4_3_u09_r13_network.node[2].content_store 	decision_ratio[2] 	0.00098577984250184
scalar tree_4_3_u09_r13_network.node[3].core_layer 	interests[3] 	11814
scalar tree_4_3_u09_r13_network.node[3].core_layer 	data[3] 	9156
scalar tree_4_3_u09_r13_network.node[3].content_store 	p_hit[3] 	0.22498730319959
scalar tree_4_3_u09_r13_network.node[3].content_store 	hits[3] 	2658
scalar tree_4_3_u09_r13_network.node[3].content_store 	misses[3] 	9156
scalar tree_4_3_u09_r13_network.node[3].content_store 	decision_yes[3] 	40
scalar tree_4_3_u09_r13_network.node[3].content_store 	decision_no[3] 	9116
scalar tree_4_3_u09_r13_network.node[3].content_store 	decision_ratio[3] 	0.0043687199650502
scalar tree_4_3_u09_r13_network.node[4].core_layer 	interests[4] 	41210
scalar tree_4_3_u09_r13_network.node[4].core_layer 	data[4] 	38660
scalar tree_4_3_u09_r13_network.node[4].content_store 	p_hit[4] 	0.061926716816307
scalar tree_4_3_u09_r13_network.node[4].content_store 	hits[4] 	2552
scalar tree_4_3_u09_r13_network.node[4].content_store 	misses[4] 	38658
scalar tree_4_3_u09_r13_network.node[4].content_store 	decision_yes[4] 	40
scalar tree_4_3_u09_r13_network.node[4].content_store 	decision_no[4] 	38620
scalar tree_4_3_u09_r13_network.node[4].content_store 	decision_ratio[4] 	0.0010346611484739
scalar tree_4_3_u09_r13_network.node[5].core_layer 	interests[5] 	29694
scalar tree_4_3_u09_r13_network.node[5].core_layer 	data[5] 	25849
scalar tree_4_3_u09_r13_network.node[5].content_store 	p_hit[5] 	0.12948743853977
scalar tree_4_3_u09_r13_network.node[5].content_store 	hits[5] 	3845
scalar tree_4_3_u09_r13_network.node[5].content_store 	misses[5] 	25849
scalar tree_4_3_u09_r13_network.node[5].content_store 	decision_yes[5] 	49
scalar tree_4_3_u09_r13_network.node[5].content_store 	decision_no[5] 	25800
scalar tree_4_3_u09_r13_network.node[5].content_store 	decision_ratio[5] 	0.001895624588959
scalar tree_4_3_u09_r13_network.node[6].core_layer 	interests[6] 	12001
scalar tree_4_3_u09_r13_network.node[6].core_layer 	data[6] 	9085
scalar tree_4_3_u09_r13_network.node[6].content_store 	p_hit[6] 	0.24297975168736
scalar tree_4_3_u09_r13_network.node[6].content_store 	hits[6] 	2916
scalar tree_4_3_u09_r13_network.node[6].content_store 	misses[6] 	9085
scalar tree_4_3_u09_r13_network.node[6].content_store 	decision_yes[6] 	24
scalar tree_4_3_u09_r13_network.node[6].content_store 	decision_no[6] 	9061
scalar tree_4_3_u09_r13_network.node[6].content_store 	decision_ratio[6] 	0.0026417171161255
scalar tree_4_3_u09_r13_network.node[7].core_layer 	interests[7] 	42561
scalar tree_4_3_u09_r13_network.node[7].core_layer 	data[7] 	39693
scalar tree_4_3_u09_r13_network.node[7].content_store 	p_hit[7] 	0.067385634736026
scalar tree_4_3_u09_r13_network.node[7].content_store 	hits[7] 	2868
scalar tree_4_3_u09_r13_network.node[7].content_store 	misses[7] 	39693
scalar tree_4_3_u09_r13_network.node[7].content_store 	decision_yes[7] 	61
scalar tree_4_3_u09_r13_network.node[7].content_store 	decision_no[7] 	39632
scalar tree_4_3_u09_r13_network.node[7].content_store 	decision_ratio[7] 	0.0015367949008641
scalar tree_4_3_u09_r13_network.node[8].core_layer 	interests[8] 	26790
scalar tree_4_3_u09_r13_network.node[8].core_layer 	data[8] 	23920
scalar tree_4_3_u09_r13_network.node[8].content_store 	p_hit[8] 	0.10712952594252
scalar tree_4_3_u09_r13_network.node[8].content_store 	hits[8] 	2870
scalar tree_4_3_u09_r13_network.node[8].content_store 	misses[8] 	23920
scalar tree_4_3_u09_r13_network.node[8].content_store 	decision_yes[8] 	32
scalar tree_4_3_u09_r13_network.node[8].content_store 	decision_no[8] 	23888
scalar tree_4_3_u09_r13_network.node[8].content_store 	decision_ratio[8] 	0.0013377926421405
scalar tree_4_3_u09_r13_network.node[9].core_layer 	interests[9] 	13920
scalar tree_4_3_u09_r13_network.node[9].core_layer 	data[9] 	10493
scalar tree_4_3_u09_r13_network.node[9].content_store 	p_hit[9] 	0.24619252873563
scalar tree_4_3_u09_r13_network.node[9].content_store 	hits[9] 	3427
scalar tree_4_3_u09_r13_network.node[9].content_store 	misses[9] 	10493
scalar tree_4_3_u09_r13_network.node[9].content_store 	decision_yes[9] 	59
scalar tree_4_3_u09_r13_network.node[9].content_store 	decision_no[9] 	10434
scalar tree_4_3_u09_r13_network.node[9].content_store 	decision_ratio[9] 	0.0056227961498142
scalar tree_4_3_u09_r13_network.node[10].core_layer 	interests[10] 	42343
scalar tree_4_3_u09_r13_network.node[10].core_layer 	data[10] 	39454
scalar tree_4_3_u09_r13_network.node[10].content_store 	p_hit[10] 	0.068252131403065
scalar tree_4_3_u09_r13_network.node[10].content_store 	hits[10] 	2890
scalar tree_4_3_u09_r13_network.node[10].content_store 	misses[10] 	39453
scalar tree_4_3_u09_r13_network.node[10].content_store 	decision_yes[10] 	55
scalar tree_4_3_u09_r13_network.node[10].content_store 	decision_no[10] 	39399
scalar tree_4_3_u09_r13_network.node[10].content_store 	decision_ratio[10] 	0.0013940284888731
scalar tree_4_3_u09_r13_network.node[11].core_layer 	interests[11] 	28919
scalar tree_4_3_u09_r13_network.node[11].core_layer 	data[11] 	25474
scalar tree_4_3_u09_r13_network.node[11].content_store 	p_hit[11] 	0.11912583422663
scalar tree_4_3_u09_r13_network.node[11].content_store 	hits[11] 	3445
scalar tree_4_3_u09_r13_network.node[11].content_store 	misses[11] 	25474
scalar tree_4_3_u09_r13_network.node[11].content_store 	decision_yes[11] 	57
scalar tree_4_3_u09_r13_network.node[11].content_store 	decision_no[11] 	25417
scalar tree_4_3_u09_r13_network.node[11].content_store 	decision_ratio[11] 	0.002237575567245
scalar tree_4_3_u09_r13_network.node[12].core_layer 	interests[12] 	11783
scalar tree_4_3_u09_r13_network.node[12].core_layer 	data[12] 	9028
scalar tree_4_3_u09_r13_network.node[12].content_store 	p_hit[12] 	0.23381142323687
scalar tree_4_3_u09_r13_network.node[12].content_store 	hits[12] 	2755
scalar tree_4_3_u09_r13_network.node[12].content_store 	misses[12] 	9028
scalar tree_4_3_u09_r13_network.node[12].content_store 	decision_yes[12] 	20
scalar tree_4_3_u09_r13_network.node[12].content_store 	decision_no[12] 	9008
scalar tree_4_3_u09_r13_network.node[12].content_store 	decision_ratio[12] 	0.0022153300841825
scalar tree_4_3_u09_r13_network.node[13].core_layer 	interests[13] 	12196
scalar tree_4_3_u09_r13_network.node[13].core_layer 	data[13] 	8610
scalar tree_4_3_u09_r13_network.node[13].content_store 	p_hit[13] 	0.29403082978026
scalar tree_4_3_u09_r13_network.node[13].content_store 	hits[13] 	3586
scalar tree_4_3_u09_r13_network.node[13].content_store 	misses[13] 	8610
scalar tree_4_3_u09_r13_network.node[13].content_store 	decision_yes[13] 	27
scalar tree_4_3_u09_r13_network.node[13].content_store 	decision_no[13] 	8583
scalar tree_4_3_u09_r13_network.node[13].content_store 	decision_ratio[13] 	0.0031358885017422
scalar tree_4_3_u09_r13_network.node[14].core_layer 	interests[14] 	12943
scalar tree_4_3_u09_r13_network.node[14].core_layer 	data[14] 	8913
scalar tree_4_3_u09_r13_network.node[14].content_store 	p_hit[14] 	0.31151974040022
scalar tree_4_3_u09_r13_network.node[14].content_store 	hits[14] 	4032
scalar tree_4_3_u09_r13_network.node[14].content_store 	misses[14] 	8911
scalar tree_4_3_u09_r13_network.node[14].content_store 	decision_yes[14] 	23
scalar tree_4_3_u09_r13_network.node[14].content_store 	decision_no[14] 	8890
scalar tree_4_3_u09_r13_network.node[14].content_store 	decision_ratio[14] 	0.0025805003926848
scalar tree_4_3_u09_r13_network.node[15].core_layer 	interests[15] 	12743
scalar tree_4_3_u09_r13_network.node[15].core_layer 	data[15] 	8868
scalar tree_4_3_u09_r13_network.node[15].content_store 	p_hit[15] 	0.304088519187
scalar tree_4_3_u09_r13_network.node[15].content_store 	hits[15] 	3875
scalar tree_4_3_u09_r13_network.node[15].content_store 	misses[15] 	8868
scalar tree_4_3_u09_r13_network.node[15].content_store 	decision_yes[15] 	21
scalar tree_4_3_u09_r13_network.node[15].content_store 	decision_no[15] 	8847
scalar tree_4_3_u09_r13_network.node[15].content_store 	decision_ratio[15] 	0.0023680649526387
scalar tree_4_3_u09_r13_network.node[16].core_layer 	interests[16] 	12737
scalar tree_4_3_u09_r13_network.node[16].core_layer 	data[16] 	8689
scalar tree_4_3_u09_r13_network.node[16].content_store 	p_hit[16] 	0.31789275339562
scalar tree_4_3_u09_r13_network.node[16].content_store 	hits[16] 	4049
scalar tree_4_3_u09_r13_network.node[16].content_store 	misses[16] 	8688
scalar tree_4_3_u09_r13_network.node[16].content_store 	decision_yes[16] 	27
scalar tree_4_3_u09_r13_network.node[16].content_store 	decision_no[16] 	8662
scalar tree_4_3_u09_r13_network.node[16].content_store 	decision_ratio[16] 	0.0031073771435148
scalar tree_4_3_u09_r13_network.node[17].core_layer 	interests[17] 	12416
scalar tree_4_3_u09_r13_network.node[17].core_layer 	data[17] 	8743
scalar tree_4_3_u09_r13_network.node[17].content_store 	p_hit[17] 	0.29582796391753
scalar tree_4_3_u09_r13_network.node[17].content_store 	hits[17] 	3673
scalar tree_4_3_u09_r13_network.node[17].content_store 	misses[17] 	8743
scalar tree_4_3_u09_r13_network.node[17].content_store 	decision_yes[17] 	23
scalar tree_4_3_u09_r13_network.node[17].content_store 	decision_no[17] 	8720
scalar tree_4_3_u09_r13_network.node[17].content_store 	decision_ratio[17] 	0.0026306759693469
scalar tree_4_3_u09_r13_network.node[18].core_layer 	interests[18] 	12535
scalar tree_4_3_u09_r13_network.node[18].core_layer 	data[18] 	8613
scalar tree_4_3_u09_r13_network.node[18].content_store 	p_hit[18] 	0.31288392500997
scalar tree_4_3_u09_r13_network.node[18].content_store 	hits[18] 	3922
scalar tree_4_3_u09_r13_network.node[18].content_store 	misses[18] 	8613
scalar tree_4_3_u09_r13_network.node[18].content_store 	decision_yes[18] 	22
scalar tree_4_3_u09_r13_network.node[18].content_store 	decision_no[18] 	8591
scalar tree_4_3_u09_r13_network.node[18].content_store 	decision_ratio[18] 	0.0025542784163474
scalar tree_4_3_u09_r13_network.node[19].core_layer 	interests[19] 	12582
scalar tree_4_3_u09_r13_network.node[19].core_layer 	data[19] 	8683
scalar tree_4_3_u09_r13_network.node[19].content_store 	p_hit[19] 	0.30980766173899
scalar tree_4_3_u09_r13_network.node[19].content_store 	hits[19] 	3898
scalar tree_4_3_u09_r13_network.node[19].content_store 	misses[19] 	8684
scalar tree_4_3_u09_r13_network.node[19].content_store 	decision_yes[19] 	17
scalar tree_4_3_u09_r13_network.node[19].content_store 	decision_no[19] 	8666
scalar tree_4_3_u09_r13_network.node[19].content_store 	decision_ratio[19] 	0.0019578486698146
scalar tree_4_3_u09_r13_network.node[20].core_layer 	interests[20] 	12795
scalar tree_4_3_u09_r13_network.node[20].core_layer 	data[20] 	8808
scalar tree_4_3_u09_r13_network.node[20].content_store 	p_hit[20] 	0.3116060961313
scalar tree_4_3_u09_r13_network.node[20].content_store 	hits[20] 	3987
scalar tree_4_3_u09_r13_network.node[20].content_store 	misses[20] 	8808
scalar tree_4_3_u09_r13_network.node[20].content_store 	decision_yes[20] 	18
scalar tree_4_3_u09_r13_network.node[20].content_store 	decision_no[20] 	8790
scalar tree_4_3_u09_r13_network.node[20].content_store 	decision_ratio[20] 	0.0020435967302452
scalar tree_4_3_u09_r13_network.node[21].core_layer 	interests[21] 	12268
scalar tree_4_3_u09_r13_network.node[21].core_layer 	data[21] 	8684
scalar tree_4_3_u09_r13_network.node[21].content_store 	p_hit[21] 	0.29214215846104
scalar tree_4_3_u09_r13_network.node[21].content_store 	hits[21] 	3584
scalar tree_4_3_u09_r13_network.node[21].content_store 	misses[21] 	8684
scalar tree_4_3_u09_r13_network.node[21].content_store 	decision_yes[21] 	26
scalar tree_4_3_u09_r13_network.node[21].content_store 	decision_no[21] 	8658
scalar tree_4_3_u09_r13_network.node[21].content_store 	decision_ratio[21] 	0.0029940119760479
scalar tree_4_3_u09_r13_network.node[22].core_layer 	interests[22] 	12498
scalar tree_4_3_u09_r13_network.node[22].core_layer 	data[22] 	8842
scalar tree_4_3_u09_r13_network.node[22].content_store 	p_hit[22] 	0.29252680428869
scalar tree_4_3_u09_r13_network.node[22].content_store 	hits[22] 	3656
scalar tree_4_3_u09_r13_network.node[22].content_store 	misses[22] 	8842
scalar tree_4_3_u09_r13_network.node[22].content_store 	decision_yes[22] 	20
scalar tree_4_3_u09_r13_network.node[22].content_store 	decision_no[22] 	8822
scalar tree_4_3_u09_r13_network.node[22].content_store 	decision_ratio[22] 	0.002261931689663
scalar tree_4_3_u09_r13_network.node[23].core_layer 	interests[23] 	12861
scalar tree_4_3_u09_r13_network.node[23].core_layer 	data[23] 	8860
scalar tree_4_3_u09_r13_network.node[23].content_store 	p_hit[23] 	0.31109556022082
scalar tree_4_3_u09_r13_network.node[23].content_store 	hits[23] 	4001
scalar tree_4_3_u09_r13_network.node[23].content_store 	misses[23] 	8860
scalar tree_4_3_u09_r13_network.node[23].content_store 	decision_yes[23] 	31
scalar tree_4_3_u09_r13_network.node[23].content_store 	decision_no[23] 	8829
scalar tree_4_3_u09_r13_network.node[23].content_store 	decision_ratio[23] 	0.0034988713318284
scalar tree_4_3_u09_r13_network.node[24].core_layer 	interests[24] 	12724
scalar tree_4_3_u09_r13_network.node[24].core_layer 	data[24] 	8794
scalar tree_4_3_u09_r13_network.node[24].content_store 	p_hit[24] 	0.30886513674945
scalar tree_4_3_u09_r13_network.node[24].content_store 	hits[24] 	3930
scalar tree_4_3_u09_r13_network.node[24].content_store 	misses[24] 	8794
scalar tree_4_3_u09_r13_network.node[24].content_store 	decision_yes[24] 	15
scalar tree_4_3_u09_r13_network.node[24].content_store 	decision_no[24] 	8779
scalar tree_4_3_u09_r13_network.node[24].content_store 	decision_ratio[24] 	0.0017057084375711
scalar tree_4_3_u09_r13_network.node[25].core_layer 	interests[25] 	12780
scalar tree_4_3_u09_r13_network.node[25].core_layer 	data[25] 	8811
scalar tree_4_3_u09_r13_network.node[25].content_store 	p_hit[25] 	0.31064162754304
scalar tree_4_3_u09_r13_network.node[25].content_store 	hits[25] 	3970
scalar tree_4_3_u09_r13_network.node[25].content_store 	misses[25] 	8810
scalar tree_4_3_u09_r13_network.node[25].content_store 	decision_yes[25] 	20
scalar tree_4_3_u09_r13_network.node[25].content_store 	decision_no[25] 	8791
scalar tree_4_3_u09_r13_network.node[25].content_store 	decision_ratio[25] 	0.0022698899103393
scalar tree_4_3_u09_r13_network.node[26].core_layer 	interests[26] 	12324
scalar tree_4_3_u09_r13_network.node[26].core_layer 	data[26] 	8717
scalar tree_4_3_u09_r13_network.node[26].content_store 	p_hit[26] 	0.29268094774424
scalar tree_4_3_u09_r13_network.node[26].content_store 	hits[26] 	3607
scalar tree_4_3_u09_r13_network.node[26].content_store 	misses[26] 	8717
scalar tree_4_3_u09_r13_network.node[26].content_store 	decision_yes[26] 	22
scalar tree_4_3_u09_r13_network.node[26].content_store 	decision_no[26] 	8695
scalar tree_4_3_u09_r13_network.node[26].content_store 	decision_ratio[26] 	0.0025238040610302
scalar tree_4_3_u09_r13_network.node[27].core_layer 	interests[27] 	12818
scalar tree_4_3_u09_r13_network.node[27].core_layer 	data[27] 	8870
scalar tree_4_3_u09_r13_network.node[27].content_store 	p_hit[27] 	0.3080043688563
scalar tree_4_3_u09_r13_network.node[27].content_store 	hits[27] 	3948
scalar tree_4_3_u09_r13_network.node[27].content_store 	misses[27] 	8870
scalar tree_4_3_u09_r13_network.node[27].content_store 	decision_yes[27] 	26
scalar tree_4_3_u09_r13_network.node[27].content_store 	decision_no[27] 	8844
scalar tree_4_3_u09_r13_network.node[27].content_store 	decision_ratio[27] 	0.0029312288613303
scalar tree_4_3_u09_r13_network.node[28].core_layer 	interests[28] 	12725
scalar tree_4_3_u09_r13_network.node[28].core_layer 	data[28] 	8756
scalar tree_4_3_u09_r13_network.node[28].content_store 	p_hit[28] 	0.31190569744597
scalar tree_4_3_u09_r13_network.node[28].content_store 	hits[28] 	3969
scalar tree_4_3_u09_r13_network.node[28].content_store 	misses[28] 	8756
scalar tree_4_3_u09_r13_network.node[28].content_store 	decision_yes[28] 	21
scalar tree_4_3_u09_r13_network.node[28].content_store 	decision_no[28] 	8735
scalar tree_4_3_u09_r13_network.node[28].content_store 	decision_ratio[28] 	0.0023983554134308
scalar tree_4_3_u09_r13_network.node[29].core_layer 	interests[29] 	12421
scalar tree_4_3_u09_r13_network.node[29].core_layer 	data[29] 	8580
scalar tree_4_3_u09_r13_network.node[29].content_store 	p_hit[29] 	0.30915385234683
scalar tree_4_3_u09_r13_network.node[29].content_store 	hits[29] 	3840
scalar tree_4_3_u09_r13_network.node[29].content_store 	misses[29] 	8581
scalar tree_4_3_u09_r13_network.node[29].content_store 	decision_yes[29] 	25
scalar tree_4_3_u09_r13_network.node[29].content_store 	decision_no[29] 	8555
scalar tree_4_3_u09_r13_network.node[29].content_store 	decision_ratio[29] 	0.0029137529137529
scalar tree_4_3_u09_r13_network.node[30].core_layer 	interests[30] 	12355
scalar tree_4_3_u09_r13_network.node[30].core_layer 	data[30] 	8793
scalar tree_4_3_u09_r13_network.node[30].content_store 	p_hit[30] 	0.28830433023068
scalar tree_4_3_u09_r13_network.node[30].content_store 	hits[30] 	3562
scalar tree_4_3_u09_r13_network.node[30].content_store 	misses[30] 	8793
scalar tree_4_3_u09_r13_network.node[30].content_store 	decision_yes[30] 	23
scalar tree_4_3_u09_r13_network.node[30].content_store 	decision_no[30] 	8770
scalar tree_4_3_u09_r13_network.node[30].content_store 	decision_ratio[30] 	0.0026157170476515
scalar tree_4_3_u09_r13_network.node[31].core_layer 	interests[31] 	12231
scalar tree_4_3_u09_r13_network.node[31].core_layer 	data[31] 	8579
scalar tree_4_3_u09_r13_network.node[31].content_store 	p_hit[31] 	0.29858556127872
scalar tree_4_3_u09_r13_network.node[31].content_store 	hits[31] 	3652
scalar tree_4_3_u09_r13_network.node[31].content_store 	misses[31] 	8579
scalar tree_4_3_u09_r13_network.node[31].content_store 	decision_yes[31] 	17
scalar tree_4_3_u09_r13_network.node[31].content_store 	decision_no[31] 	8562
scalar tree_4_3_u09_r13_network.node[31].content_store 	decision_ratio[31] 	0.001981582935074
scalar tree_4_3_u09_r13_network.node[32].core_layer 	interests[32] 	12640
scalar tree_4_3_u09_r13_network.node[32].core_layer 	data[32] 	8754
scalar tree_4_3_u09_r13_network.node[32].content_store 	p_hit[32] 	0.30743670886076
scalar tree_4_3_u09_r13_network.node[32].content_store 	hits[32] 	3886
scalar tree_4_3_u09_r13_network.node[32].content_store 	misses[32] 	8754
scalar tree_4_3_u09_r13_network.node[32].content_store 	decision_yes[32] 	17
scalar tree_4_3_u09_r13_network.node[32].content_store 	decision_no[32] 	8737
scalar tree_4_3_u09_r13_network.node[32].content_store 	decision_ratio[32] 	0.0019419693854238
scalar tree_4_3_u09_r13_network.node[33].core_layer 	interests[33] 	12768
scalar tree_4_3_u09_r13_network.node[33].core_layer 	data[33] 	8806
scalar tree_4_3_u09_r13_network.node[33].content_store 	p_hit[33] 	0.31030701754386
scalar tree_4_3_u09_r13_network.node[33].content_store 	hits[33] 	3962
scalar tree_4_3_u09_r13_network.node[33].content_store 	misses[33] 	8806
scalar tree_4_3_u09_r13_network.node[33].content_store 	decision_yes[33] 	23
scalar tree_4_3_u09_r13_network.node[33].content_store 	decision_no[33] 	8783
scalar tree_4_3_u09_r13_network.node[33].content_store 	decision_ratio[33] 	0.002611855553032
scalar tree_4_3_u09_r13_network.node[34].core_layer 	interests[34] 	12860
scalar tree_4_3_u09_r13_network.node[34].core_layer 	data[34] 	8848
scalar tree_4_3_u09_r13_network.node[34].content_store 	p_hit[34] 	0.31189735614308
scalar tree_4_3_u09_r13_network.node[34].content_store 	hits[34] 	4011
scalar tree_4_3_u09_r13_network.node[34].content_store 	misses[34] 	8849
scalar tree_4_3_u09_r13_network.node[34].content_store 	decision_yes[34] 	14
scalar tree_4_3_u09_r13_network.node[34].content_store 	decision_no[34] 	8834
scalar tree_4_3_u09_r13_network.node[34].content_store 	decision_ratio[34] 	0.0015822784810127
scalar tree_4_3_u09_r13_network.node[35].core_layer 	interests[35] 	12243
scalar tree_4_3_u09_r13_network.node[35].core_layer 	data[35] 	8721
scalar tree_4_3_u09_r13_network.node[35].content_store 	p_hit[35] 	0.28767458956138
scalar tree_4_3_u09_r13_network.node[35].content_store 	hits[35] 	3522
scalar tree_4_3_u09_r13_network.node[35].content_store 	misses[35] 	8721
scalar tree_4_3_u09_r13_network.node[35].content_store 	decision_yes[35] 	19
scalar tree_4_3_u09_r13_network.node[35].content_store 	decision_no[35] 	8702
scalar tree_4_3_u09_r13_network.node[35].content_store 	decision_ratio[35] 	0.0021786492374728
scalar tree_4_3_u09_r13_network.node[36].core_layer 	interests[36] 	12563
scalar tree_4_3_u09_r13_network.node[36].core_layer 	data[36] 	8726
scalar tree_4_3_u09_r13_network.node[36].content_store 	p_hit[36] 	0.30542067977394
scalar tree_4_3_u09_r13_network.node[36].content_store 	hits[36] 	3837
scalar tree_4_3_u09_r13_network.node[36].content_store 	misses[36] 	8726
scalar tree_4_3_u09_r13_network.node[36].content_store 	decision_yes[36] 	19
scalar tree_4_3_u09_r13_network.node[36].content_store 	decision_no[36] 	8707
scalar tree_4_3_u09_r13_network.node[36].content_store 	decision_ratio[36] 	0.0021774008709603
scalar tree_4_3_u09_r13_network.node[37].core_layer 	interests[37] 	12667
scalar tree_4_3_u09_r13_network.node[37].core_layer 	data[37] 	8722
scalar tree_4_3_u09_r13_network.node[37].content_store 	p_hit[37] 	0.31151811794426
scalar tree_4_3_u09_r13_network.node[37].content_store 	hits[37] 	3946
scalar tree_4_3_u09_r13_network.node[37].content_store 	misses[37] 	8721
scalar tree_4_3_u09_r13_network.node[37].content_store 	decision_yes[37] 	17
scalar tree_4_3_u09_r13_network.node[37].content_store 	decision_no[37] 	8705
scalar tree_4_3_u09_r13_network.node[37].content_store 	decision_ratio[37] 	0.0019490942444393
scalar tree_4_3_u09_r13_network.node[38].core_layer 	interests[38] 	12759
scalar tree_4_3_u09_r13_network.node[38].core_layer 	data[38] 	8792
scalar tree_4_3_u09_r13_network.node[38].content_store 	p_hit[38] 	0.31091778352535
scalar tree_4_3_u09_r13_network.node[38].content_store 	hits[38] 	3967
scalar tree_4_3_u09_r13_network.node[38].content_store 	misses[38] 	8792
scalar tree_4_3_u09_r13_network.node[38].content_store 	decision_yes[38] 	23
scalar tree_4_3_u09_r13_network.node[38].content_store 	decision_no[38] 	8769
scalar tree_4_3_u09_r13_network.node[38].content_store 	decision_ratio[38] 	0.0026160145586897
scalar tree_4_3_u09_r13_network.node[39].core_layer 	interests[39] 	12448
scalar tree_4_3_u09_r13_network.node[39].core_layer 	data[39] 	8808
scalar tree_4_3_u09_r13_network.node[39].content_store 	p_hit[39] 	0.29241645244216
scalar tree_4_3_u09_r13_network.node[39].content_store 	hits[39] 	3640
scalar tree_4_3_u09_r13_network.node[39].content_store 	misses[39] 	8808
scalar tree_4_3_u09_r13_network.node[39].content_store 	decision_yes[39] 	23
scalar tree_4_3_u09_r13_network.node[39].content_store 	decision_no[39] 	8785
scalar tree_4_3_u09_r13_network.node[39].content_store 	decision_ratio[39] 	0.0026112624886467
scalar tree_4_3_u09_r13_network.client[13] 	hdistance[13] 	2.6384195039933
scalar tree_4_3_u09_r13_network.client[13] 	downloads[13] 	11895
scalar tree_4_3_u09_r13_network.client[13] 	avg_time[13] 	0.004123073954
scalar tree_4_3_u09_r13_network.client[14] 	hdistance[14] 	2.5513073507647
scalar tree_4_3_u09_r13_network.client[14] 	downloads[14] 	12162
scalar tree_4_3_u09_r13_network.client[14] 	avg_time[14] 	0.004011672663
scalar tree_4_3_u09_r13_network.client[15] 	hdistance[15] 	2.5930232558139
scalar tree_4_3_u09_r13_network.client[15] 	downloads[15] 	12040
scalar tree_4_3_u09_r13_network.client[15] 	avg_time[15] 	0.004044349168
scalar tree_4_3_u09_r13_network.client[16] 	hdistance[16] 	2.5614819816018
scalar tree_4_3_u09_r13_network.client[16] 	downloads[16] 	11849
scalar tree_4_3_u09_r13_network.client[16] 	avg_time[16] 	0.004025990777
scalar tree_4_3_u09_r13_network.client[17] 	hdistance[17] 	2.6199159663866
scalar tree_4_3_u09_r13_network.client[17] 	downloads[17] 	11900
scalar tree_4_3_u09_r13_network.client[17] 	avg_time[17] 	0.004138484442
scalar tree_4_3_u09_r13_network.client[18] 	hdistance[18] 	2.5313765182186
scalar tree_4_3_u09_r13_network.client[18] 	downloads[18] 	11856
scalar tree_4_3_u09_r13_network.client[18] 	avg_time[18] 	0.003977223774
scalar tree_4_3_u09_r13_network.client[19] 	hdistance[19] 	2.5778506007899
scalar tree_4_3_u09_r13_network.client[19] 	downloads[19] 	11901
scalar tree_4_3_u09_r13_network.client[19] 	avg_time[19] 	0.004009912139
scalar tree_4_3_u09_r13_network.client[20] 	hdistance[20] 	2.5420794139682
scalar tree_4_3_u09_r13_network.client[20] 	downloads[20] 	12013
scalar tree_4_3_u09_r13_network.client[20] 	avg_time[20] 	0.003991173237
scalar tree_4_3_u09_r13_network.client[21] 	hdistance[21] 	2.6201991465149
scalar tree_4_3_u09_r13_network.client[21] 	downloads[21] 	11951
scalar tree_4_3_u09_r13_network.client[21] 	avg_time[21] 	0.00409421507
scalar tree_4_3_u09_r13_network.client[22] 	hdistance[22] 	2.6441463818513
scalar tree_4_3_u09_r13_network.client[22] 	downloads[22] 	12078
scalar tree_4_3_u09_r13_network.client[22] 	avg_time[22] 	0.00415234007
scalar tree_4_3_u09_r13_network.client[23] 	hdistance[23] 	2.5804074196754
scalar tree_4_3_u09_r13_network.client[23] 	downloads[23] 	12076
scalar tree_4_3_u09_r13_network.client[23] 	avg_time[23] 	0.004034114213
scalar tree_4_3_u09_r13_network.client[24] 	hdistance[24] 	2.5705203279237
scalar tree_4_3_u09_r13_network.client[24] 	downloads[24] 	11954
scalar tree_4_3_u09_r13_network.client[24] 	avg_time[24] 	0.004030447085
scalar tree_4_3_u09_r13_network.client[25] 	hdistance[25] 	2.5958319383997
scalar tree_4_3_u09_r13_network.client[25] 	downloads[25] 	11948
scalar tree_4_3_u09_r13_network.client[25] 	avg_time[25] 	0.004066090362
scalar tree_4_3_u09_r13_network.client[26] 	hdistance[26] 	2.6378631834547
scalar tree_4_3_u09_r13_network.client[26] 	downloads[26] 	11943
scalar tree_4_3_u09_r13_network.client[26] 	avg_time[26] 	0.004147196195
scalar tree_4_3_u09_r13_network.client[27] 	hdistance[27] 	2.5642323651452
scalar tree_4_3_u09_r13_network.client[27] 	downloads[27] 	12050
scalar tree_4_3_u09_r13_network.client[27] 	avg_time[27] 	0.00401958203
scalar tree_4_3_u09_r13_network.client[28] 	hdistance[28] 	2.5503018108652
scalar tree_4_3_u09_r13_network.client[28] 	downloads[28] 	11928
scalar tree_4_3_u09_r13_network.client[28] 	avg_time[28] 	0.004001506078
scalar tree_4_3_u09_r13_network.client[29] 	hdistance[29] 	2.5543877638212
scalar tree_4_3_u09_r13_network.client[29] 	downloads[29] 	11703
scalar tree_4_3_u09_r13_network.client[29] 	avg_time[29] 	0.004005357661
scalar tree_4_3_u09_r13_network.client[30] 	hdistance[30] 	2.6155902748768
scalar tree_4_3_u09_r13_network.client[30] 	downloads[30] 	11969
scalar tree_4_3_u09_r13_network.client[30] 	avg_time[30] 	0.004124151087
scalar tree_4_3_u09_r13_network.client[31] 	hdistance[31] 	2.6044215678002
scalar tree_4_3_u09_r13_network.client[31] 	downloads[31] 	11851
scalar tree_4_3_u09_r13_network.client[31] 	avg_time[31] 	0.004095685183
scalar tree_4_3_u09_r13_network.client[32] 	hdistance[32] 	2.5659373151981
scalar tree_4_3_u09_r13_network.client[32] 	downloads[32] 	11837
scalar tree_4_3_u09_r13_network.client[32] 	avg_time[32] 	0.004040040941
scalar tree_4_3_u09_r13_network.client[33] 	hdistance[33] 	2.5543882868724
scalar tree_4_3_u09_r13_network.client[33] 	downloads[33] 	12089
scalar tree_4_3_u09_r13_network.client[33] 	avg_time[33] 	0.003998177175
scalar tree_4_3_u09_r13_network.client[34] 	hdistance[34] 	2.5494877726371
scalar tree_4_3_u09_r13_network.client[34] 	downloads[34] 	12104
scalar tree_4_3_u09_r13_network.client[34] 	avg_time[34] 	0.004009886034
scalar tree_4_3_u09_r13_network.client[35] 	hdistance[35] 	2.6155082022662
scalar tree_4_3_u09_r13_network.client[35] 	downloads[35] 	11826
scalar tree_4_3_u09_r13_network.client[35] 	avg_time[35] 	0.004125821489
scalar tree_4_3_u09_r13_network.client[36] 	hdistance[36] 	2.5476110645432
scalar tree_4_3_u09_r13_network.client[36] 	downloads[36] 	11930
scalar tree_4_3_u09_r13_network.client[36] 	avg_time[36] 	0.00399362654
scalar tree_4_3_u09_r13_network.client[37] 	hdistance[37] 	2.5712965297034
scalar tree_4_3_u09_r13_network.client[37] 	downloads[37] 	11901
scalar tree_4_3_u09_r13_network.client[37] 	avg_time[37] 	0.004025373056
scalar tree_4_3_u09_r13_network.client[38] 	hdistance[38] 	2.5530796194292
scalar tree_4_3_u09_r13_network.client[38] 	downloads[38] 	11982
scalar tree_4_3_u09_r13_network.client[38] 	avg_time[38] 	0.004005004497
scalar tree_4_3_u09_r13_network.client[39] 	hdistance[39] 	2.6195427911199
scalar tree_4_3_u09_r13_network.client[39] 	downloads[39] 	12117
scalar tree_4_3_u09_r13_network.client[39] 	avg_time[39] 	0.004087477394
