version 2
run General-196-20160903-01:03:41-4279
attr a 0.9
attr cd ffc0.2
attr configname General
attr cr lru
attr datetime 20160903-01:03:41
attr experiment General
attr fsize 1
attr inifile hw5115/scenario_Y/omnetp.ini
attr iterationvars "$name=tree_4_3, $un=09, $rep=17, $cd=ffc0.2, $cr=lru, $fsize=1, $a=0.9, $sl=nrr, $ttl=1000, $variance=0.05"
attr iterationvars2 "$name=tree_4_3, $un=09, $rep=17, $cd=ffc0.2, $cr=lru, $fsize=1, $a=0.9, $sl=nrr, $ttl=1000, $variance=0.05, $repetition=0"
attr measurement "$name=tree_4_3, $un=09, $rep=17, $cd=ffc0.2, $cr=lru, $fsize=1, $a=0.9, $sl=nrr, $ttl=1000, $variance=0.05"
attr name tree_4_3
attr network networks.${name}_u${un}_r${rep}_network
attr processid 4279
attr rep 17
attr repetition 0
attr replication #0
attr resultdir results
attr runnumber 196
attr seedset 17
attr sl nrr
attr ttl 1000
attr un 09
attr variance 0.05

scalar . 	a 	0.9
scalar . 	fsize 	1
scalar . 	rep 	17
scalar . 	ttl 	1000
scalar . 	un 	09
scalar . 	variance 	0.05
scalar tree_4_3_u09_r17_network.content_distribution 	repo-0 	0
scalar tree_4_3_u09_r17_network.content_distribution 	client-0 	13
scalar tree_4_3_u09_r17_network.content_distribution 	client-1 	14
scalar tree_4_3_u09_r17_network.content_distribution 	client-2 	15
scalar tree_4_3_u09_r17_network.content_distribution 	client-3 	16
scalar tree_4_3_u09_r17_network.content_distribution 	client-4 	17
scalar tree_4_3_u09_r17_network.content_distribution 	client-5 	18
scalar tree_4_3_u09_r17_network.content_distribution 	client-6 	19
scalar tree_4_3_u09_r17_network.content_distribution 	client-7 	20
scalar tree_4_3_u09_r17_network.content_distribution 	client-8 	21
scalar tree_4_3_u09_r17_network.content_distribution 	client-9 	22
scalar tree_4_3_u09_r17_network.content_distribution 	client-10 	23
scalar tree_4_3_u09_r17_network.content_distribution 	client-11 	24
scalar tree_4_3_u09_r17_network.content_distribution 	client-12 	25
scalar tree_4_3_u09_r17_network.content_distribution 	client-13 	26
scalar tree_4_3_u09_r17_network.content_distribution 	client-14 	27
scalar tree_4_3_u09_r17_network.content_distribution 	client-15 	28
scalar tree_4_3_u09_r17_network.content_distribution 	client-16 	29
scalar tree_4_3_u09_r17_network.content_distribution 	client-17 	30
scalar tree_4_3_u09_r17_network.content_distribution 	client-18 	31
scalar tree_4_3_u09_r17_network.content_distribution 	client-19 	32
scalar tree_4_3_u09_r17_network.content_distribution 	client-20 	33
scalar tree_4_3_u09_r17_network.content_distribution 	client-21 	34
scalar tree_4_3_u09_r17_network.content_distribution 	client-22 	35
scalar tree_4_3_u09_r17_network.content_distribution 	client-23 	36
scalar tree_4_3_u09_r17_network.content_distribution 	client-24 	37
scalar tree_4_3_u09_r17_network.content_distribution 	client-25 	38
scalar tree_4_3_u09_r17_network.content_distribution 	client-26 	39
scalar tree_4_3_u09_r17_network.content_distribution 	repo-0_card 	100000
scalar tree_4_3_u09_r17_network.content_distribution 	repo-0_price 	0
scalar tree_4_3_u09_r17_network.statistics 	stabilization_time 	2582
scalar tree_4_3_u09_r17_network.statistics 	p_hit 	0.24637866775701
scalar tree_4_3_u09_r17_network.statistics 	interests 	24458.825
scalar tree_4_3_u09_r17_network.statistics 	data 	16377.625
scalar tree_4_3_u09_r17_network.statistics 	hdistance 	2.5772907255495
scalar tree_4_3_u09_r17_network.statistics 	avg_time 	0.004053387368
scalar tree_4_3_u09_r17_network.statistics 	downloads 	323251
scalar tree_4_3_u09_r17_network.statistics 	total_cost 	0
scalar tree_4_3_u09_r17_network.statistics 	total_replicas 	100000
scalar tree_4_3_u09_r17_network.statistics 	inner_hit 	0.44943712471114
scalar tree_4_3_u09_r17_network.node[0].core_layer 	interests[0] 	181037
scalar tree_4_3_u09_r17_network.node[0].core_layer 	repo_load[0] 	177970
scalar tree_4_3_u09_r17_network.node[0].core_layer 	data[0] 	0
scalar tree_4_3_u09_r17_network.node[0].core_layer 	repo_int[0] 	177970
scalar tree_4_3_u09_r17_network.node[0].content_store 	p_hit[0] 	0.016941288244944
scalar tree_4_3_u09_r17_network.node[0].content_store 	hits[0] 	3067
scalar tree_4_3_u09_r17_network.node[0].content_store 	misses[0] 	177970
scalar tree_4_3_u09_r17_network.node[0].content_store 	decision_yes[0] 	132
scalar tree_4_3_u09_r17_network.node[0].content_store 	decision_no[0] 	177838
scalar tree_4_3_u09_r17_network.node[0].content_store 	decision_ratio[0] 	0.00074169803899534
scalar tree_4_3_u09_r17_network.node[1].core_layer 	interests[1] 	137312
scalar tree_4_3_u09_r17_network.node[1].core_layer 	data[1] 	134206
scalar tree_4_3_u09_r17_network.node[1].content_store 	p_hit[1] 	0.022598170589606
scalar tree_4_3_u09_r17_network.node[1].content_store 	hits[1] 	3103
scalar tree_4_3_u09_r17_network.node[1].content_store 	misses[1] 	134209
scalar tree_4_3_u09_r17_network.node[1].content_store 	decision_yes[1] 	138
scalar tree_4_3_u09_r17_network.node[1].content_store 	decision_no[1] 	134068
scalar tree_4_3_u09_r17_network.node[1].content_store 	decision_ratio[1] 	0.0010282699730265
scalar tree_4_3_u09_r17_network.node[2].core_layer 	interests[2] 	55508
scalar tree_4_3_u09_r17_network.node[2].core_layer 	data[2] 	52018
scalar tree_4_3_u09_r17_network.node[2].content_store 	p_hit[2] 	0.062855804568711
scalar tree_4_3_u09_r17_network.node[2].content_store 	hits[2] 	3489
scalar tree_4_3_u09_r17_network.node[2].content_store 	misses[2] 	52019
scalar tree_4_3_u09_r17_network.node[2].content_store 	decision_yes[2] 	59
scalar tree_4_3_u09_r17_network.node[2].content_store 	decision_no[2] 	51959
scalar tree_4_3_u09_r17_network.node[2].content_store 	decision_ratio[2] 	0.0011342227690415
scalar tree_4_3_u09_r17_network.node[3].core_layer 	interests[3] 	11936
scalar tree_4_3_u09_r17_network.node[3].core_layer 	data[3] 	9195
scalar tree_4_3_u09_r17_network.node[3].content_store 	p_hit[3] 	0.22964142091153
scalar tree_4_3_u09_r17_network.node[3].content_store 	hits[3] 	2741
scalar tree_4_3_u09_r17_network.node[3].content_store 	misses[3] 	9195
scalar tree_4_3_u09_r17_network.node[3].content_store 	decision_yes[3] 	36
scalar tree_4_3_u09_r17_network.node[3].content_store 	decision_no[3] 	9159
scalar tree_4_3_u09_r17_network.node[3].content_store 	decision_ratio[3] 	0.0039151712887439
scalar tree_4_3_u09_r17_network.node[4].core_layer 	interests[4] 	42667
scalar tree_4_3_u09_r17_network.node[4].core_layer 	data[4] 	39737
scalar tree_4_3_u09_r17_network.node[4].content_store 	p_hit[4] 	0.068671338505168
scalar tree_4_3_u09_r17_network.node[4].content_store 	hits[4] 	2930
scalar tree_4_3_u09_r17_network.node[4].content_store 	misses[4] 	39737
scalar tree_4_3_u09_r17_network.node[4].content_store 	decision_yes[4] 	67
scalar tree_4_3_u09_r17_network.node[4].content_store 	decision_no[4] 	39670
scalar tree_4_3_u09_r17_network.node[4].content_store 	decision_ratio[4] 	0.0016860860155523
scalar tree_4_3_u09_r17_network.node[5].core_layer 	interests[5] 	29252
scalar tree_4_3_u09_r17_network.node[5].core_layer 	data[5] 	25543
scalar tree_4_3_u09_r17_network.node[5].content_store 	p_hit[5] 	0.12679474907699
scalar tree_4_3_u09_r17_network.node[5].content_store 	hits[5] 	3709
scalar tree_4_3_u09_r17_network.node[5].content_store 	misses[5] 	25543
scalar tree_4_3_u09_r17_network.node[5].content_store 	decision_yes[5] 	59
scalar tree_4_3_u09_r17_network.node[5].content_store 	decision_no[5] 	25484
scalar tree_4_3_u09_r17_network.node[5].content_store 	decision_ratio[5] 	0.0023098304819324
scalar tree_4_3_u09_r17_network.node[6].core_layer 	interests[6] 	12274
scalar tree_4_3_u09_r17_network.node[6].core_layer 	data[6] 	9091
scalar tree_4_3_u09_r17_network.node[6].content_store 	p_hit[6] 	0.25932866221281
scalar tree_4_3_u09_r17_network.node[6].content_store 	hits[6] 	3183
scalar tree_4_3_u09_r17_network.node[6].content_store 	misses[6] 	9091
scalar tree_4_3_u09_r17_network.node[6].content_store 	decision_yes[6] 	35
scalar tree_4_3_u09_r17_network.node[6].content_store 	decision_no[6] 	9056
scalar tree_4_3_u09_r17_network.node[6].content_store 	decision_ratio[6] 	0.003849961500385
scalar tree_4_3_u09_r17_network.node[7].core_layer 	interests[7] 	43328
scalar tree_4_3_u09_r17_network.node[7].core_layer 	data[7] 	39633
scalar tree_4_3_u09_r17_network.node[7].content_store 	p_hit[7] 	0.085279726735598
scalar tree_4_3_u09_r17_network.node[7].content_store 	hits[7] 	3695
scalar tree_4_3_u09_r17_network.node[7].content_store 	misses[7] 	39633
scalar tree_4_3_u09_r17_network.node[7].content_store 	decision_yes[7] 	69
scalar tree_4_3_u09_r17_network.node[7].content_store 	decision_no[7] 	39564
scalar tree_4_3_u09_r17_network.node[7].content_store 	decision_ratio[7] 	0.0017409734312315
scalar tree_4_3_u09_r17_network.node[8].core_layer 	interests[8] 	26810
scalar tree_4_3_u09_r17_network.node[8].core_layer 	data[8] 	23963
scalar tree_4_3_u09_r17_network.node[8].content_store 	p_hit[8] 	0.10619171950765
scalar tree_4_3_u09_r17_network.node[8].content_store 	hits[8] 	2847
scalar tree_4_3_u09_r17_network.node[8].content_store 	misses[8] 	23963
scalar tree_4_3_u09_r17_network.node[8].content_store 	decision_yes[8] 	40
scalar tree_4_3_u09_r17_network.node[8].content_store 	decision_no[8] 	23923
scalar tree_4_3_u09_r17_network.node[8].content_store 	decision_ratio[8] 	0.0016692400784543
scalar tree_4_3_u09_r17_network.node[9].core_layer 	interests[9] 	13662
scalar tree_4_3_u09_r17_network.node[9].core_layer 	data[9] 	10397
scalar tree_4_3_u09_r17_network.node[9].content_store 	p_hit[9] 	0.23898404333187
scalar tree_4_3_u09_r17_network.node[9].content_store 	hits[9] 	3265
scalar tree_4_3_u09_r17_network.node[9].content_store 	misses[9] 	10397
scalar tree_4_3_u09_r17_network.node[9].content_store 	decision_yes[9] 	54
scalar tree_4_3_u09_r17_network.node[9].content_store 	decision_no[9] 	10343
scalar tree_4_3_u09_r17_network.node[9].content_store 	decision_ratio[9] 	0.0051938059055497
scalar tree_4_3_u09_r17_network.node[10].core_layer 	interests[10] 	43838
scalar tree_4_3_u09_r17_network.node[10].core_layer 	data[10] 	40210
scalar tree_4_3_u09_r17_network.node[10].content_store 	p_hit[10] 	0.082736438706145
scalar tree_4_3_u09_r17_network.node[10].content_store 	hits[10] 	3627
scalar tree_4_3_u09_r17_network.node[10].content_store 	misses[10] 	40211
scalar tree_4_3_u09_r17_network.node[10].content_store 	decision_yes[10] 	86
scalar tree_4_3_u09_r17_network.node[10].content_store 	decision_no[10] 	40124
scalar tree_4_3_u09_r17_network.node[10].content_store 	decision_ratio[10] 	0.0021387714498881
scalar tree_4_3_u09_r17_network.node[11].core_layer 	interests[11] 	28468
scalar tree_4_3_u09_r17_network.node[11].core_layer 	data[11] 	25302
scalar tree_4_3_u09_r17_network.node[11].content_store 	p_hit[11] 	0.11121258957426
scalar tree_4_3_u09_r17_network.node[11].content_store 	hits[11] 	3166
scalar tree_4_3_u09_r17_network.node[11].content_store 	misses[11] 	25302
scalar tree_4_3_u09_r17_network.node[11].content_store 	decision_yes[11] 	55
scalar tree_4_3_u09_r17_network.node[11].content_store 	decision_no[11] 	25247
scalar tree_4_3_u09_r17_network.node[11].content_store 	decision_ratio[11] 	0.0021737412062288
scalar tree_4_3_u09_r17_network.node[12].core_layer 	interests[12] 	11062
scalar tree_4_3_u09_r17_network.node[12].core_layer 	data[12] 	8830
scalar tree_4_3_u09_r17_network.node[12].content_store 	p_hit[12] 	0.20177183149521
scalar tree_4_3_u09_r17_network.node[12].content_store 	hits[12] 	2232
scalar tree_4_3_u09_r17_network.node[12].content_store 	misses[12] 	8830
scalar tree_4_3_u09_r17_network.node[12].content_store 	decision_yes[12] 	25
scalar tree_4_3_u09_r17_network.node[12].content_store 	decision_no[12] 	8805
scalar tree_4_3_u09_r17_network.node[12].content_store 	decision_ratio[12] 	0.0028312570781427
scalar tree_4_3_u09_r17_network.node[13].core_layer 	interests[13] 	12344
scalar tree_4_3_u09_r17_network.node[13].core_layer 	data[13] 	8706
scalar tree_4_3_u09_r17_network.node[13].content_store 	p_hit[13] 	0.29471808165911
scalar tree_4_3_u09_r17_network.node[13].content_store 	hits[13] 	3638
scalar tree_4_3_u09_r17_network.node[13].content_store 	misses[13] 	8706
scalar tree_4_3_u09_r17_network.node[13].content_store 	decision_yes[13] 	28
scalar tree_4_3_u09_r17_network.node[13].content_store 	decision_no[13] 	8678
scalar tree_4_3_u09_r17_network.node[13].content_store 	decision_ratio[13] 	0.0032161727544222
scalar tree_4_3_u09_r17_network.node[14].core_layer 	interests[14] 	13107
scalar tree_4_3_u09_r17_network.node[14].core_layer 	data[14] 	9009
scalar tree_4_3_u09_r17_network.node[14].content_store 	p_hit[14] 	0.31265735866331
scalar tree_4_3_u09_r17_network.node[14].content_store 	hits[14] 	4098
scalar tree_4_3_u09_r17_network.node[14].content_store 	misses[14] 	9009
scalar tree_4_3_u09_r17_network.node[14].content_store 	decision_yes[14] 	28
scalar tree_4_3_u09_r17_network.node[14].content_store 	decision_no[14] 	8981
scalar tree_4_3_u09_r17_network.node[14].content_store 	decision_ratio[14] 	0.0031080031080031
scalar tree_4_3_u09_r17_network.node[15].core_layer 	interests[15] 	12926
scalar tree_4_3_u09_r17_network.node[15].core_layer 	data[15] 	8911
scalar tree_4_3_u09_r17_network.node[15].content_store 	p_hit[15] 	0.31061426582083
scalar tree_4_3_u09_r17_network.node[15].content_store 	hits[15] 	4015
scalar tree_4_3_u09_r17_network.node[15].content_store 	misses[15] 	8911
scalar tree_4_3_u09_r17_network.node[15].content_store 	decision_yes[15] 	27
scalar tree_4_3_u09_r17_network.node[15].content_store 	decision_no[15] 	8884
scalar tree_4_3_u09_r17_network.node[15].content_store 	decision_ratio[15] 	0.0030299629671193
scalar tree_4_3_u09_r17_network.node[16].core_layer 	interests[16] 	13088
scalar tree_4_3_u09_r17_network.node[16].core_layer 	data[16] 	9029
scalar tree_4_3_u09_r17_network.node[16].content_store 	p_hit[16] 	0.31013141809291
scalar tree_4_3_u09_r17_network.node[16].content_store 	hits[16] 	4059
scalar tree_4_3_u09_r17_network.node[16].content_store 	misses[16] 	9029
scalar tree_4_3_u09_r17_network.node[16].content_store 	decision_yes[16] 	26
scalar tree_4_3_u09_r17_network.node[16].content_store 	decision_no[16] 	9003
scalar tree_4_3_u09_r17_network.node[16].content_store 	decision_ratio[16] 	0.002879610145088
scalar tree_4_3_u09_r17_network.node[17].core_layer 	interests[17] 	12404
scalar tree_4_3_u09_r17_network.node[17].core_layer 	data[17] 	8730
scalar tree_4_3_u09_r17_network.node[17].content_store 	p_hit[17] 	0.29619477587875
scalar tree_4_3_u09_r17_network.node[17].content_store 	hits[17] 	3674
scalar tree_4_3_u09_r17_network.node[17].content_store 	misses[17] 	8730
scalar tree_4_3_u09_r17_network.node[17].content_store 	decision_yes[17] 	16
scalar tree_4_3_u09_r17_network.node[17].content_store 	decision_no[17] 	8714
scalar tree_4_3_u09_r17_network.node[17].content_store 	decision_ratio[17] 	0.0018327605956472
scalar tree_4_3_u09_r17_network.node[18].core_layer 	interests[18] 	12836
scalar tree_4_3_u09_r17_network.node[18].core_layer 	data[18] 	8808
scalar tree_4_3_u09_r17_network.node[18].content_store 	p_hit[18] 	0.31380492365223
scalar tree_4_3_u09_r17_network.node[18].content_store 	hits[18] 	4028
scalar tree_4_3_u09_r17_network.node[18].content_store 	misses[18] 	8808
scalar tree_4_3_u09_r17_network.node[18].content_store 	decision_yes[18] 	23
scalar tree_4_3_u09_r17_network.node[18].content_store 	decision_no[18] 	8785
scalar tree_4_3_u09_r17_network.node[18].content_store 	decision_ratio[18] 	0.0026112624886467
scalar tree_4_3_u09_r17_network.node[19].core_layer 	interests[19] 	12746
scalar tree_4_3_u09_r17_network.node[19].core_layer 	data[19] 	8753
scalar tree_4_3_u09_r17_network.node[19].content_store 	p_hit[19] 	0.31327475286364
scalar tree_4_3_u09_r17_network.node[19].content_store 	hits[19] 	3993
scalar tree_4_3_u09_r17_network.node[19].content_store 	misses[19] 	8753
scalar tree_4_3_u09_r17_network.node[19].content_store 	decision_yes[19] 	25
scalar tree_4_3_u09_r17_network.node[19].content_store 	decision_no[19] 	8728
scalar tree_4_3_u09_r17_network.node[19].content_store 	decision_ratio[19] 	0.0028561636010511
scalar tree_4_3_u09_r17_network.node[20].core_layer 	interests[20] 	12617
scalar tree_4_3_u09_r17_network.node[20].core_layer 	data[20] 	8794
scalar tree_4_3_u09_r17_network.node[20].content_store 	p_hit[20] 	0.30300388364904
scalar tree_4_3_u09_r17_network.node[20].content_store 	hits[20] 	3823
scalar tree_4_3_u09_r17_network.node[20].content_store 	misses[20] 	8794
scalar tree_4_3_u09_r17_network.node[20].content_store 	decision_yes[20] 	21
scalar tree_4_3_u09_r17_network.node[20].content_store 	decision_no[20] 	8773
scalar tree_4_3_u09_r17_network.node[20].content_store 	decision_ratio[20] 	0.0023879918125995
scalar tree_4_3_u09_r17_network.node[21].core_layer 	interests[21] 	12306
scalar tree_4_3_u09_r17_network.node[21].core_layer 	data[21] 	8741
scalar tree_4_3_u09_r17_network.node[21].content_store 	p_hit[21] 	0.28969608321144
scalar tree_4_3_u09_r17_network.node[21].content_store 	hits[21] 	3565
scalar tree_4_3_u09_r17_network.node[21].content_store 	misses[21] 	8741
scalar tree_4_3_u09_r17_network.node[21].content_store 	decision_yes[21] 	20
scalar tree_4_3_u09_r17_network.node[21].content_store 	decision_no[21] 	8721
scalar tree_4_3_u09_r17_network.node[21].content_store 	decision_ratio[21] 	0.0022880677268047
scalar tree_4_3_u09_r17_network.node[22].core_layer 	interests[22] 	12174
scalar tree_4_3_u09_r17_network.node[22].core_layer 	data[22] 	8573
scalar tree_4_3_u09_r17_network.node[22].content_store 	p_hit[22] 	0.2958764580253
scalar tree_4_3_u09_r17_network.node[22].content_store 	hits[22] 	3602
scalar tree_4_3_u09_r17_network.node[22].content_store 	misses[22] 	8572
scalar tree_4_3_u09_r17_network.node[22].content_store 	decision_yes[22] 	17
scalar tree_4_3_u09_r17_network.node[22].content_store 	decision_no[22] 	8556
scalar tree_4_3_u09_r17_network.node[22].content_store 	decision_ratio[22] 	0.001982969788872
scalar tree_4_3_u09_r17_network.node[23].core_layer 	interests[23] 	12934
scalar tree_4_3_u09_r17_network.node[23].core_layer 	data[23] 	8870
scalar tree_4_3_u09_r17_network.node[23].content_store 	p_hit[23] 	0.31421060770063
scalar tree_4_3_u09_r17_network.node[23].content_store 	hits[23] 	4064
scalar tree_4_3_u09_r17_network.node[23].content_store 	misses[23] 	8870
scalar tree_4_3_u09_r17_network.node[23].content_store 	decision_yes[23] 	26
scalar tree_4_3_u09_r17_network.node[23].content_store 	decision_no[23] 	8844
scalar tree_4_3_u09_r17_network.node[23].content_store 	decision_ratio[23] 	0.0029312288613303
scalar tree_4_3_u09_r17_network.node[24].core_layer 	interests[24] 	12908
scalar tree_4_3_u09_r17_network.node[24].core_layer 	data[24] 	8740
scalar tree_4_3_u09_r17_network.node[24].content_store 	p_hit[24] 	0.32297799814069
scalar tree_4_3_u09_r17_network.node[24].content_store 	hits[24] 	4169
scalar tree_4_3_u09_r17_network.node[24].content_store 	misses[24] 	8739
scalar tree_4_3_u09_r17_network.node[24].content_store 	decision_yes[24] 	22
scalar tree_4_3_u09_r17_network.node[24].content_store 	decision_no[24] 	8718
scalar tree_4_3_u09_r17_network.node[24].content_store 	decision_ratio[24] 	0.0025171624713959
scalar tree_4_3_u09_r17_network.node[25].core_layer 	interests[25] 	12816
scalar tree_4_3_u09_r17_network.node[25].core_layer 	data[25] 	8781
scalar tree_4_3_u09_r17_network.node[25].content_store 	p_hit[25] 	0.31484082397004
scalar tree_4_3_u09_r17_network.node[25].content_store 	hits[25] 	4035
scalar tree_4_3_u09_r17_network.node[25].content_store 	misses[25] 	8781
scalar tree_4_3_u09_r17_network.node[25].content_store 	decision_yes[25] 	24
scalar tree_4_3_u09_r17_network.node[25].content_store 	decision_no[25] 	8757
scalar tree_4_3_u09_r17_network.node[25].content_store 	decision_ratio[25] 	0.0027331738981893
scalar tree_4_3_u09_r17_network.node[26].core_layer 	interests[26] 	12319
scalar tree_4_3_u09_r17_network.node[26].core_layer 	data[26] 	8690
scalar tree_4_3_u09_r17_network.node[26].content_store 	p_hit[26] 	0.29466677490056
scalar tree_4_3_u09_r17_network.node[26].content_store 	hits[26] 	3630
scalar tree_4_3_u09_r17_network.node[26].content_store 	misses[26] 	8689
scalar tree_4_3_u09_r17_network.node[26].content_store 	decision_yes[26] 	22
scalar tree_4_3_u09_r17_network.node[26].content_store 	decision_no[26] 	8668
scalar tree_4_3_u09_r17_network.node[26].content_store 	decision_ratio[26] 	0.0025316455696203
scalar tree_4_3_u09_r17_network.node[27].core_layer 	interests[27] 	12717
scalar tree_4_3_u09_r17_network.node[27].core_layer 	data[27] 	8780
scalar tree_4_3_u09_r17_network.node[27].content_store 	p_hit[27] 	0.30958559408666
scalar tree_4_3_u09_r17_network.node[27].content_store 	hits[27] 	3937
scalar tree_4_3_u09_r17_network.node[27].content_store 	misses[27] 	8780
scalar tree_4_3_u09_r17_network.node[27].content_store 	decision_yes[27] 	26
scalar tree_4_3_u09_r17_network.node[27].content_store 	decision_no[27] 	8754
scalar tree_4_3_u09_r17_network.node[27].content_store 	decision_ratio[27] 	0.0029612756264237
scalar tree_4_3_u09_r17_network.node[28].core_layer 	interests[28] 	12769
scalar tree_4_3_u09_r17_network.node[28].core_layer 	data[28] 	8698
scalar tree_4_3_u09_r17_network.node[28].content_store 	p_hit[28] 	0.31881901480147
scalar tree_4_3_u09_r17_network.node[28].content_store 	hits[28] 	4071
scalar tree_4_3_u09_r17_network.node[28].content_store 	misses[28] 	8698
scalar tree_4_3_u09_r17_network.node[28].content_store 	decision_yes[28] 	20
scalar tree_4_3_u09_r17_network.node[28].content_store 	decision_no[28] 	8678
scalar tree_4_3_u09_r17_network.node[28].content_store 	decision_ratio[28] 	0.0022993791676247
scalar tree_4_3_u09_r17_network.node[29].core_layer 	interests[29] 	12758
scalar tree_4_3_u09_r17_network.node[29].core_layer 	data[29] 	8852
scalar tree_4_3_u09_r17_network.node[29].content_store 	p_hit[29] 	0.30608245806553
scalar tree_4_3_u09_r17_network.node[29].content_store 	hits[29] 	3905
scalar tree_4_3_u09_r17_network.node[29].content_store 	misses[29] 	8853
scalar tree_4_3_u09_r17_network.node[29].content_store 	decision_yes[29] 	26
scalar tree_4_3_u09_r17_network.node[29].content_store 	decision_no[29] 	8826
scalar tree_4_3_u09_r17_network.node[29].content_store 	decision_ratio[29] 	0.0029371893357433
scalar tree_4_3_u09_r17_network.node[30].core_layer 	interests[30] 	12319
scalar tree_4_3_u09_r17_network.node[30].core_layer 	data[30] 	8661
scalar tree_4_3_u09_r17_network.node[30].content_store 	p_hit[30] 	0.29693968666288
scalar tree_4_3_u09_r17_network.node[30].content_store 	hits[30] 	3658
scalar tree_4_3_u09_r17_network.node[30].content_store 	misses[30] 	8661
scalar tree_4_3_u09_r17_network.node[30].content_store 	decision_yes[30] 	12
scalar tree_4_3_u09_r17_network.node[30].content_store 	decision_no[30] 	8649
scalar tree_4_3_u09_r17_network.node[30].content_store 	decision_ratio[30] 	0.00138552130239
scalar tree_4_3_u09_r17_network.node[31].core_layer 	interests[31] 	12604
scalar tree_4_3_u09_r17_network.node[31].core_layer 	data[31] 	8781
scalar tree_4_3_u09_r17_network.node[31].content_store 	p_hit[31] 	0.30331640748969
scalar tree_4_3_u09_r17_network.node[31].content_store 	hits[31] 	3823
scalar tree_4_3_u09_r17_network.node[31].content_store 	misses[31] 	8781
scalar tree_4_3_u09_r17_network.node[31].content_store 	decision_yes[31] 	23
scalar tree_4_3_u09_r17_network.node[31].content_store 	decision_no[31] 	8758
scalar tree_4_3_u09_r17_network.node[31].content_store 	decision_ratio[31] 	0.0026192916524314
scalar tree_4_3_u09_r17_network.node[32].core_layer 	interests[32] 	12945
scalar tree_4_3_u09_r17_network.node[32].core_layer 	data[32] 	8835
scalar tree_4_3_u09_r17_network.node[32].content_store 	p_hit[32] 	0.31749710312862
scalar tree_4_3_u09_r17_network.node[32].content_store 	hits[32] 	4110
scalar tree_4_3_u09_r17_network.node[32].content_store 	misses[32] 	8835
scalar tree_4_3_u09_r17_network.node[32].content_store 	decision_yes[32] 	20
scalar tree_4_3_u09_r17_network.node[32].content_store 	decision_no[32] 	8815
scalar tree_4_3_u09_r17_network.node[32].content_store 	decision_ratio[32] 	0.0022637238256933
scalar tree_4_3_u09_r17_network.node[33].core_layer 	interests[33] 	12461
scalar tree_4_3_u09_r17_network.node[33].core_layer 	data[33] 	8784
scalar tree_4_3_u09_r17_network.node[33].content_store 	p_hit[33] 	0.29516090201428
scalar tree_4_3_u09_r17_network.node[33].content_store 	hits[33] 	3678
scalar tree_4_3_u09_r17_network.node[33].content_store 	misses[33] 	8783
scalar tree_4_3_u09_r17_network.node[33].content_store 	decision_yes[33] 	19
scalar tree_4_3_u09_r17_network.node[33].content_store 	decision_no[33] 	8765
scalar tree_4_3_u09_r17_network.node[33].content_store 	decision_ratio[33] 	0.0021630236794171
scalar tree_4_3_u09_r17_network.node[34].core_layer 	interests[34] 	12633
scalar tree_4_3_u09_r17_network.node[34].core_layer 	data[34] 	8680
scalar tree_4_3_u09_r17_network.node[34].content_store 	p_hit[34] 	0.31291063088736
scalar tree_4_3_u09_r17_network.node[34].content_store 	hits[34] 	3953
scalar tree_4_3_u09_r17_network.node[34].content_store 	misses[34] 	8680
scalar tree_4_3_u09_r17_network.node[34].content_store 	decision_yes[34] 	20
scalar tree_4_3_u09_r17_network.node[34].content_store 	decision_no[34] 	8660
scalar tree_4_3_u09_r17_network.node[34].content_store 	decision_ratio[34] 	0.0023041474654378
scalar tree_4_3_u09_r17_network.node[35].core_layer 	interests[35] 	12308
scalar tree_4_3_u09_r17_network.node[35].core_layer 	data[35] 	8696
scalar tree_4_3_u09_r17_network.node[35].content_store 	p_hit[35] 	0.29346766330842
scalar tree_4_3_u09_r17_network.node[35].content_store 	hits[35] 	3612
scalar tree_4_3_u09_r17_network.node[35].content_store 	misses[35] 	8696
scalar tree_4_3_u09_r17_network.node[35].content_store 	decision_yes[35] 	17
scalar tree_4_3_u09_r17_network.node[35].content_store 	decision_no[35] 	8679
scalar tree_4_3_u09_r17_network.node[35].content_store 	decision_ratio[35] 	0.0019549218031279
scalar tree_4_3_u09_r17_network.node[36].core_layer 	interests[36] 	12738
scalar tree_4_3_u09_r17_network.node[36].core_layer 	data[36] 	8738
scalar tree_4_3_u09_r17_network.node[36].content_store 	p_hit[36] 	0.31402103940964
scalar tree_4_3_u09_r17_network.node[36].content_store 	hits[36] 	4000
scalar tree_4_3_u09_r17_network.node[36].content_store 	misses[36] 	8738
scalar tree_4_3_u09_r17_network.node[36].content_store 	decision_yes[36] 	23
scalar tree_4_3_u09_r17_network.node[36].content_store 	decision_no[36] 	8715
scalar tree_4_3_u09_r17_network.node[36].content_store 	decision_ratio[36] 	0.0026321812771801
scalar tree_4_3_u09_r17_network.node[37].core_layer 	interests[37] 	12688
scalar tree_4_3_u09_r17_network.node[37].core_layer 	data[37] 	8815
scalar tree_4_3_u09_r17_network.node[37].content_store 	p_hit[37] 	0.30524905422446
scalar tree_4_3_u09_r17_network.node[37].content_store 	hits[37] 	3873
scalar tree_4_3_u09_r17_network.node[37].content_store 	misses[37] 	8815
scalar tree_4_3_u09_r17_network.node[37].content_store 	decision_yes[37] 	26
scalar tree_4_3_u09_r17_network.node[37].content_store 	decision_no[37] 	8789
scalar tree_4_3_u09_r17_network.node[37].content_store 	decision_ratio[37] 	0.0029495178672717
scalar tree_4_3_u09_r17_network.node[38].core_layer 	interests[38] 	12579
scalar tree_4_3_u09_r17_network.node[38].core_layer 	data[38] 	8732
scalar tree_4_3_u09_r17_network.node[38].content_store 	p_hit[38] 	0.30582717227125
scalar tree_4_3_u09_r17_network.node[38].content_store 	hits[38] 	3847
scalar tree_4_3_u09_r17_network.node[38].content_store 	misses[38] 	8732
scalar tree_4_3_u09_r17_network.node[38].content_store 	decision_yes[38] 	22
scalar tree_4_3_u09_r17_network.node[38].content_store 	decision_no[38] 	8710
scalar tree_4_3_u09_r17_network.node[38].content_store 	decision_ratio[38] 	0.0025194686211635
scalar tree_4_3_u09_r17_network.node[39].core_layer 	interests[39] 	12155
scalar tree_4_3_u09_r17_network.node[39].core_layer 	data[39] 	8793
scalar tree_4_3_u09_r17_network.node[39].content_store 	p_hit[39] 	0.27659399424105
scalar tree_4_3_u09_r17_network.node[39].content_store 	hits[39] 	3362
scalar tree_4_3_u09_r17_network.node[39].content_store 	misses[39] 	8793
scalar tree_4_3_u09_r17_network.node[39].content_store 	decision_yes[39] 	20
scalar tree_4_3_u09_r17_network.node[39].content_store 	decision_no[39] 	8773
scalar tree_4_3_u09_r17_network.node[39].content_store 	decision_ratio[39] 	0.0022745365631753
scalar tree_4_3_u09_r17_network.client[13] 	hdistance[13] 	2.6307134424018
scalar tree_4_3_u09_r17_network.client[13] 	downloads[13] 	11858
scalar tree_4_3_u09_r17_network.client[13] 	avg_time[13] 	0.004143528842
scalar tree_4_3_u09_r17_network.client[14] 	hdistance[14] 	2.5835672997523
scalar tree_4_3_u09_r17_network.client[14] 	downloads[14] 	12110
scalar tree_4_3_u09_r17_network.client[14] 	avg_time[14] 	0.004063745959
scalar tree_4_3_u09_r17_network.client[15] 	hdistance[15] 	2.5998840963656
scalar tree_4_3_u09_r17_network.client[15] 	downloads[15] 	12079
scalar tree_4_3_u09_r17_network.client[15] 	avg_time[15] 	0.004060266865
scalar tree_4_3_u09_r17_network.client[16] 	hdistance[16] 	2.5570067356662
scalar tree_4_3_u09_r17_network.client[16] 	downloads[16] 	12174
scalar tree_4_3_u09_r17_network.client[16] 	avg_time[16] 	0.004032525331
scalar tree_4_3_u09_r17_network.client[17] 	hdistance[17] 	2.6052147751964
scalar tree_4_3_u09_r17_network.client[17] 	downloads[17] 	11966
scalar tree_4_3_u09_r17_network.client[17] 	avg_time[17] 	0.004115825181
scalar tree_4_3_u09_r17_network.client[18] 	hdistance[18] 	2.5241213527852
scalar tree_4_3_u09_r17_network.client[18] 	downloads[18] 	12064
scalar tree_4_3_u09_r17_network.client[18] 	avg_time[18] 	0.003974466472
scalar tree_4_3_u09_r17_network.client[19] 	hdistance[19] 	2.5738019702788
scalar tree_4_3_u09_r17_network.client[19] 	downloads[19] 	11978
scalar tree_4_3_u09_r17_network.client[19] 	avg_time[19] 	0.004018697968
scalar tree_4_3_u09_r17_network.client[20] 	hdistance[20] 	2.5501048218029
scalar tree_4_3_u09_r17_network.client[20] 	downloads[20] 	11925
scalar tree_4_3_u09_r17_network.client[20] 	avg_time[20] 	0.004022135363
scalar tree_4_3_u09_r17_network.client[21] 	hdistance[21] 	2.6266266266266
scalar tree_4_3_u09_r17_network.client[21] 	downloads[21] 	11988
scalar tree_4_3_u09_r17_network.client[21] 	avg_time[21] 	0.004121952277
scalar tree_4_3_u09_r17_network.client[22] 	hdistance[22] 	2.6011388747238
scalar tree_4_3_u09_r17_network.client[22] 	downloads[22] 	11766
scalar tree_4_3_u09_r17_network.client[22] 	avg_time[22] 	0.004110038362
scalar tree_4_3_u09_r17_network.client[23] 	hdistance[23] 	2.5591380024865
scalar tree_4_3_u09_r17_network.client[23] 	downloads[23] 	12065
scalar tree_4_3_u09_r17_network.client[23] 	avg_time[23] 	0.004022375795
scalar tree_4_3_u09_r17_network.client[24] 	hdistance[24] 	2.4978013772505
scalar tree_4_3_u09_r17_network.client[24] 	downloads[24] 	12053
scalar tree_4_3_u09_r17_network.client[24] 	avg_time[24] 	0.003941754261
scalar tree_4_3_u09_r17_network.client[25] 	hdistance[25] 	2.5592564555472
scalar tree_4_3_u09_r17_network.client[25] 	downloads[25] 	11889
scalar tree_4_3_u09_r17_network.client[25] 	avg_time[25] 	0.004027922002
scalar tree_4_3_u09_r17_network.client[26] 	hdistance[26] 	2.6356081591539
scalar tree_4_3_u09_r17_network.client[26] 	downloads[26] 	11913
scalar tree_4_3_u09_r17_network.client[26] 	avg_time[26] 	0.004136486548
scalar tree_4_3_u09_r17_network.client[27] 	hdistance[27] 	2.5437192631491
scalar tree_4_3_u09_r17_network.client[27] 	downloads[27] 	11997
scalar tree_4_3_u09_r17_network.client[27] 	avg_time[27] 	0.00399016124
scalar tree_4_3_u09_r17_network.client[28] 	hdistance[28] 	2.5109550091989
scalar tree_4_3_u09_r17_network.client[28] 	downloads[28] 	11958
scalar tree_4_3_u09_r17_network.client[28] 	avg_time[28] 	0.003957180471
scalar tree_4_3_u09_r17_network.client[29] 	hdistance[29] 	2.5423574270557
scalar tree_4_3_u09_r17_network.client[29] 	downloads[29] 	12064
scalar tree_4_3_u09_r17_network.client[29] 	avg_time[29] 	0.003990713183
scalar tree_4_3_u09_r17_network.client[30] 	hdistance[30] 	2.5958479825883
scalar tree_4_3_u09_r17_network.client[30] 	downloads[30] 	11946
scalar tree_4_3_u09_r17_network.client[30] 	avg_time[30] 	0.004083539625
scalar tree_4_3_u09_r17_network.client[31] 	hdistance[31] 	2.6039538167622
scalar tree_4_3_u09_r17_network.client[31] 	downloads[31] 	12039
scalar tree_4_3_u09_r17_network.client[31] 	avg_time[31] 	0.004115686673
scalar tree_4_3_u09_r17_network.client[32] 	hdistance[32] 	2.5622328388232
scalar tree_4_3_u09_r17_network.client[32] 	downloads[32] 	11931
scalar tree_4_3_u09_r17_network.client[32] 	avg_time[32] 	0.00403452893
scalar tree_4_3_u09_r17_network.client[33] 	hdistance[33] 	2.6206235411804
scalar tree_4_3_u09_r17_network.client[33] 	downloads[33] 	11996
scalar tree_4_3_u09_r17_network.client[33] 	avg_time[33] 	0.004134541841
scalar tree_4_3_u09_r17_network.client[34] 	hdistance[34] 	2.5339168490153
scalar tree_4_3_u09_r17_network.client[34] 	downloads[34] 	11882
scalar tree_4_3_u09_r17_network.client[34] 	avg_time[34] 	0.003988328594
scalar tree_4_3_u09_r17_network.client[35] 	hdistance[35] 	2.600974871838
scalar tree_4_3_u09_r17_network.client[35] 	downloads[35] 	11899
scalar tree_4_3_u09_r17_network.client[35] 	avg_time[35] 	0.004105888258
scalar tree_4_3_u09_r17_network.client[36] 	hdistance[36] 	2.5608243967828
scalar tree_4_3_u09_r17_network.client[36] 	downloads[36] 	11936
scalar tree_4_3_u09_r17_network.client[36] 	avg_time[36] 	0.004016536281
scalar tree_4_3_u09_r17_network.client[37] 	hdistance[37] 	2.5731441048035
scalar tree_4_3_u09_r17_network.client[37] 	downloads[37] 	11908
scalar tree_4_3_u09_r17_network.client[37] 	avg_time[37] 	0.004050162335
scalar tree_4_3_u09_r17_network.client[38] 	hdistance[38] 	2.557958259995
scalar tree_4_3_u09_r17_network.client[38] 	downloads[38] 	11931
scalar tree_4_3_u09_r17_network.client[38] 	avg_time[38] 	0.004007372744
scalar tree_4_3_u09_r17_network.client[39] 	hdistance[39] 	2.6763572386059
scalar tree_4_3_u09_r17_network.client[39] 	downloads[39] 	11936
scalar tree_4_3_u09_r17_network.client[39] 	avg_time[39] 	0.004175097551
