version 2
run General-16-20160823-20:23:52-9702
attr D ffc0.05
attr F spr
attr R lru
attr a 0.9
attr configname General
attr datetime 20160823-20:23:52
attr experiment General
attr inifile hw5115/scenario_C/omnetp.ini
attr iterationvars "$net=dtelecom, $rep=2, $a=0.9, $F=spr, $D=ffc0.05, $R=lru, $window=60, $variance=0.05, $mytime=600"
attr iterationvars2 "$net=dtelecom, $rep=2, $a=0.9, $F=spr, $D=ffc0.05, $R=lru, $window=60, $variance=0.05, $mytime=600, $repetition=0"
attr measurement "$net=dtelecom, $rep=2, $a=0.9, $F=spr, $D=ffc0.05, $R=lru, $window=60, $variance=0.05, $mytime=600"
attr mytime 600
attr net dtelecom
attr network networks.${net=dtelecom}_network
attr processid 9702
attr rep 2
attr repetition 0
attr replication #0
attr resultdir results
attr runnumber 16
attr seedset 2
attr variance 0.05
attr window 60

scalar . 	a 	0.9
scalar . 	mytime 	600
scalar . 	rep 	2
scalar . 	variance 	0.05
scalar . 	window 	60
scalar dtelecom_network.content_distribution 	repo-0 	47
scalar dtelecom_network.content_distribution 	repo-1 	25
scalar dtelecom_network.content_distribution 	repo-2 	67
scalar dtelecom_network.content_distribution 	repo-3 	23
scalar dtelecom_network.content_distribution 	repo-4 	57
scalar dtelecom_network.content_distribution 	repo-5 	14
scalar dtelecom_network.content_distribution 	repo-6 	42
scalar dtelecom_network.content_distribution 	repo-7 	8
scalar dtelecom_network.content_distribution 	repo-8 	39
scalar dtelecom_network.content_distribution 	repo-9 	48
scalar dtelecom_network.content_distribution 	repo-10 	7
scalar dtelecom_network.content_distribution 	repo-11 	44
scalar dtelecom_network.content_distribution 	repo-12 	0
scalar dtelecom_network.content_distribution 	repo-13 	55
scalar dtelecom_network.content_distribution 	repo-14 	6
scalar dtelecom_network.content_distribution 	repo-15 	19
scalar dtelecom_network.content_distribution 	client-0 	46
scalar dtelecom_network.content_distribution 	client-1 	30
scalar dtelecom_network.content_distribution 	client-2 	8
scalar dtelecom_network.content_distribution 	client-3 	49
scalar dtelecom_network.content_distribution 	client-4 	66
scalar dtelecom_network.content_distribution 	client-5 	58
scalar dtelecom_network.content_distribution 	client-6 	32
scalar dtelecom_network.content_distribution 	client-7 	40
scalar dtelecom_network.content_distribution 	client-8 	42
scalar dtelecom_network.content_distribution 	client-9 	45
scalar dtelecom_network.content_distribution 	client-10 	33
scalar dtelecom_network.content_distribution 	client-11 	28
scalar dtelecom_network.content_distribution 	client-12 	3
scalar dtelecom_network.content_distribution 	client-13 	57
scalar dtelecom_network.content_distribution 	client-14 	50
scalar dtelecom_network.content_distribution 	client-15 	17
scalar dtelecom_network.content_distribution 	client-16 	59
scalar dtelecom_network.content_distribution 	client-17 	48
scalar dtelecom_network.content_distribution 	client-18 	23
scalar dtelecom_network.content_distribution 	client-19 	22
scalar dtelecom_network.content_distribution 	client-20 	67
scalar dtelecom_network.content_distribution 	client-21 	62
scalar dtelecom_network.content_distribution 	client-22 	56
scalar dtelecom_network.content_distribution 	client-23 	55
scalar dtelecom_network.content_distribution 	client-24 	53
scalar dtelecom_network.content_distribution 	client-25 	36
scalar dtelecom_network.content_distribution 	client-26 	51
scalar dtelecom_network.content_distribution 	client-27 	37
scalar dtelecom_network.content_distribution 	client-28 	54
scalar dtelecom_network.content_distribution 	client-29 	4
scalar dtelecom_network.content_distribution 	client-30 	31
scalar dtelecom_network.content_distribution 	client-31 	9
scalar dtelecom_network.content_distribution 	repo-0_card 	6237
scalar dtelecom_network.content_distribution 	repo-0_price 	0
scalar dtelecom_network.content_distribution 	repo-1_card 	6125
scalar dtelecom_network.content_distribution 	repo-1_price 	0
scalar dtelecom_network.content_distribution 	repo-2_card 	6218
scalar dtelecom_network.content_distribution 	repo-2_price 	0
scalar dtelecom_network.content_distribution 	repo-3_card 	6258
scalar dtelecom_network.content_distribution 	repo-3_price 	0
scalar dtelecom_network.content_distribution 	repo-4_card 	6179
scalar dtelecom_network.content_distribution 	repo-4_price 	0
scalar dtelecom_network.content_distribution 	repo-5_card 	6255
scalar dtelecom_network.content_distribution 	repo-5_price 	0
scalar dtelecom_network.content_distribution 	repo-6_card 	6348
scalar dtelecom_network.content_distribution 	repo-6_price 	0
scalar dtelecom_network.content_distribution 	repo-7_card 	6286
scalar dtelecom_network.content_distribution 	repo-7_price 	0
scalar dtelecom_network.content_distribution 	repo-8_card 	6393
scalar dtelecom_network.content_distribution 	repo-8_price 	0
scalar dtelecom_network.content_distribution 	repo-9_card 	6213
scalar dtelecom_network.content_distribution 	repo-9_price 	0
scalar dtelecom_network.content_distribution 	repo-10_card 	6263
scalar dtelecom_network.content_distribution 	repo-10_price 	0
scalar dtelecom_network.content_distribution 	repo-11_card 	6216
scalar dtelecom_network.content_distribution 	repo-11_price 	0
scalar dtelecom_network.content_distribution 	repo-12_card 	6289
scalar dtelecom_network.content_distribution 	repo-12_price 	0
scalar dtelecom_network.content_distribution 	repo-13_card 	6209
scalar dtelecom_network.content_distribution 	repo-13_price 	0
scalar dtelecom_network.content_distribution 	repo-14_card 	6400
scalar dtelecom_network.content_distribution 	repo-14_price 	0
scalar dtelecom_network.content_distribution 	repo-15_card 	6111
scalar dtelecom_network.content_distribution 	repo-15_price 	0
scalar dtelecom_network.statistics 	stabilization_time 	18987.1
scalar dtelecom_network.statistics 	p_hit 	0.26210634211388
scalar dtelecom_network.statistics 	interests 	13095.808823529
scalar dtelecom_network.statistics 	data 	7460
scalar dtelecom_network.statistics 	hdistance 	1.8245220951946
scalar dtelecom_network.statistics 	avg_time 	0.020414048779
scalar dtelecom_network.statistics 	downloads 	383220
scalar dtelecom_network.statistics 	total_cost 	0
scalar dtelecom_network.statistics 	total_replicas 	100000
scalar dtelecom_network.statistics 	inner_hit 	0.49915975157873
scalar dtelecom_network.node[0].core_layer 	interests[0] 	18176
scalar dtelecom_network.node[0].core_layer 	repo_load[0] 	11310
scalar dtelecom_network.node[0].core_layer 	data[0] 	1565
scalar dtelecom_network.node[0].core_layer 	repo_int[0] 	191932
scalar dtelecom_network.node[0].content_store 	p_hit[0] 	0.29159330985915
scalar dtelecom_network.node[0].content_store 	hits[0] 	5300
scalar dtelecom_network.node[0].content_store 	misses[0] 	12876
scalar dtelecom_network.node[0].content_store 	decision_yes[0] 	23
scalar dtelecom_network.node[0].content_store 	decision_no[0] 	12852
scalar dtelecom_network.node[0].content_store 	decision_ratio[0] 	0.0017864077669903
scalar dtelecom_network.node[1].core_layer 	interests[1] 	198388
scalar dtelecom_network.node[1].core_layer 	data[1] 	185400
scalar dtelecom_network.node[1].content_store 	p_hit[1] 	0.065291247454483
scalar dtelecom_network.node[1].content_store 	hits[1] 	12953
scalar dtelecom_network.node[1].content_store 	misses[1] 	185435
scalar dtelecom_network.node[1].content_store 	decision_yes[1] 	126
scalar dtelecom_network.node[1].content_store 	decision_no[1] 	185274
scalar dtelecom_network.node[1].content_store 	decision_ratio[1] 	0.00067961165048544
scalar dtelecom_network.node[2].core_layer 	interests[2] 	2745
scalar dtelecom_network.node[2].core_layer 	data[2] 	2341
scalar dtelecom_network.node[2].content_store 	p_hit[2] 	0.1471766848816
scalar dtelecom_network.node[2].content_store 	hits[2] 	404
scalar dtelecom_network.node[2].content_store 	misses[2] 	2341
scalar dtelecom_network.node[2].content_store 	decision_yes[2] 	1
scalar dtelecom_network.node[2].content_store 	decision_no[2] 	2340
scalar dtelecom_network.node[2].content_store 	decision_ratio[2] 	0.00042716787697565
scalar dtelecom_network.node[3].core_layer 	interests[3] 	11970
scalar dtelecom_network.node[3].core_layer 	data[3] 	8575
scalar dtelecom_network.node[3].content_store 	p_hit[3] 	0.28362573099415
scalar dtelecom_network.node[3].content_store 	hits[3] 	3395
scalar dtelecom_network.node[3].content_store 	misses[3] 	8575
scalar dtelecom_network.node[3].content_store 	decision_yes[3] 	3
scalar dtelecom_network.node[3].content_store 	decision_no[3] 	8572
scalar dtelecom_network.node[3].content_store 	decision_ratio[3] 	0.00034985422740525
scalar dtelecom_network.node[4].core_layer 	interests[4] 	44399
scalar dtelecom_network.node[4].core_layer 	data[4] 	37570
scalar dtelecom_network.node[4].content_store 	p_hit[4] 	0.15344940201356
scalar dtelecom_network.node[4].content_store 	hits[4] 	6813
scalar dtelecom_network.node[4].content_store 	misses[4] 	37586
scalar dtelecom_network.node[4].content_store 	decision_yes[4] 	21
scalar dtelecom_network.node[4].content_store 	decision_no[4] 	37549
scalar dtelecom_network.node[4].content_store 	decision_ratio[4] 	0.00055895661431994
scalar dtelecom_network.node[5].core_layer 	interests[5] 	0
scalar dtelecom_network.node[5].core_layer 	data[5] 	0
scalar dtelecom_network.node[5].content_store 	p_hit[5] 	-nan
scalar dtelecom_network.node[5].content_store 	hits[5] 	0
scalar dtelecom_network.node[5].content_store 	misses[5] 	0
scalar dtelecom_network.node[5].content_store 	decision_yes[5] 	0
scalar dtelecom_network.node[5].content_store 	decision_no[5] 	0
scalar dtelecom_network.node[5].content_store 	decision_ratio[5] 	0
scalar dtelecom_network.node[6].core_layer 	interests[6] 	17296
scalar dtelecom_network.node[6].core_layer 	repo_load[6] 	11822
scalar dtelecom_network.node[6].core_layer 	data[6] 	0
scalar dtelecom_network.node[6].content_store 	p_hit[6] 	0.31648936170213
scalar dtelecom_network.node[6].content_store 	hits[6] 	5474
scalar dtelecom_network.node[6].content_store 	misses[6] 	11822
scalar dtelecom_network.node[6].content_store 	decision_yes[6] 	22
scalar dtelecom_network.node[6].content_store 	decision_no[6] 	11800
scalar dtelecom_network.node[6].content_store 	decision_ratio[6] 	0.0018609372356623
scalar dtelecom_network.node[7].core_layer 	interests[7] 	16722
scalar dtelecom_network.node[7].core_layer 	repo_load[7] 	11834
scalar dtelecom_network.node[7].core_layer 	data[7] 	0
scalar dtelecom_network.node[7].content_store 	p_hit[7] 	0.29230953235259
scalar dtelecom_network.node[7].content_store 	hits[7] 	4888
scalar dtelecom_network.node[7].content_store 	misses[7] 	11834
scalar dtelecom_network.node[7].content_store 	decision_yes[7] 	23
scalar dtelecom_network.node[7].content_store 	decision_no[7] 	11811
scalar dtelecom_network.node[7].content_store 	decision_ratio[7] 	0.0019435524759168
scalar dtelecom_network.node[8].core_layer 	interests[8] 	28690
scalar dtelecom_network.node[8].core_layer 	repo_load[8] 	12671
scalar dtelecom_network.node[8].core_layer 	data[8] 	9220
scalar dtelecom_network.node[8].content_store 	p_hit[8] 	0.23701638201464
scalar dtelecom_network.node[8].content_store 	hits[8] 	6800
scalar dtelecom_network.node[8].content_store 	misses[8] 	21890
scalar dtelecom_network.node[8].content_store 	decision_yes[8] 	36
scalar dtelecom_network.node[8].content_store 	decision_no[8] 	21855
scalar dtelecom_network.node[8].content_store 	decision_ratio[8] 	0.0016445114430588
scalar dtelecom_network.node[9].core_layer 	interests[9] 	12350
scalar dtelecom_network.node[9].core_layer 	data[9] 	9066
scalar dtelecom_network.node[9].content_store 	p_hit[9] 	0.26591093117409
scalar dtelecom_network.node[9].content_store 	hits[9] 	3284
scalar dtelecom_network.node[9].content_store 	misses[9] 	9066
scalar dtelecom_network.node[9].content_store 	decision_yes[9] 	11
scalar dtelecom_network.node[9].content_store 	decision_no[9] 	9055
scalar dtelecom_network.node[9].content_store 	decision_ratio[9] 	0.0012133245091551
scalar dtelecom_network.node[10].core_layer 	interests[10] 	0
scalar dtelecom_network.node[10].core_layer 	data[10] 	0
scalar dtelecom_network.node[10].content_store 	p_hit[10] 	-nan
scalar dtelecom_network.node[10].content_store 	hits[10] 	0
scalar dtelecom_network.node[10].content_store 	misses[10] 	0
scalar dtelecom_network.node[10].content_store 	decision_yes[10] 	0
scalar dtelecom_network.node[10].content_store 	decision_no[10] 	0
scalar dtelecom_network.node[10].content_store 	decision_ratio[10] 	0
scalar dtelecom_network.node[11].core_layer 	interests[11] 	0
scalar dtelecom_network.node[11].core_layer 	data[11] 	0
scalar dtelecom_network.node[11].content_store 	p_hit[11] 	-nan
scalar dtelecom_network.node[11].content_store 	hits[11] 	0
scalar dtelecom_network.node[11].content_store 	misses[11] 	0
scalar dtelecom_network.node[11].content_store 	decision_yes[11] 	0
scalar dtelecom_network.node[11].content_store 	decision_no[11] 	0
scalar dtelecom_network.node[11].content_store 	decision_ratio[11] 	0
scalar dtelecom_network.node[12].core_layer 	interests[12] 	0
scalar dtelecom_network.node[12].core_layer 	data[12] 	0
scalar dtelecom_network.node[12].content_store 	p_hit[12] 	-nan
scalar dtelecom_network.node[12].content_store 	hits[12] 	0
scalar dtelecom_network.node[12].content_store 	misses[12] 	0
scalar dtelecom_network.node[12].content_store 	decision_yes[12] 	0
scalar dtelecom_network.node[12].content_store 	decision_no[12] 	0
scalar dtelecom_network.node[12].content_store 	decision_ratio[12] 	0
scalar dtelecom_network.node[13].core_layer 	interests[13] 	0
scalar dtelecom_network.node[13].core_layer 	data[13] 	0
scalar dtelecom_network.node[13].content_store 	p_hit[13] 	-nan
scalar dtelecom_network.node[13].content_store 	hits[13] 	0
scalar dtelecom_network.node[13].content_store 	misses[13] 	0
scalar dtelecom_network.node[13].content_store 	decision_yes[13] 	0
scalar dtelecom_network.node[13].content_store 	decision_no[13] 	0
scalar dtelecom_network.node[13].content_store 	decision_ratio[13] 	0
scalar dtelecom_network.node[14].core_layer 	interests[14] 	17229
scalar dtelecom_network.node[14].core_layer 	repo_load[14] 	11933
scalar dtelecom_network.node[14].core_layer 	data[14] 	0
scalar dtelecom_network.node[14].content_store 	p_hit[14] 	0.30738870509025
scalar dtelecom_network.node[14].content_store 	hits[14] 	5296
scalar dtelecom_network.node[14].content_store 	misses[14] 	11933
scalar dtelecom_network.node[14].content_store 	decision_yes[14] 	27
scalar dtelecom_network.node[14].content_store 	decision_no[14] 	11906
scalar dtelecom_network.node[14].content_store 	decision_ratio[14] 	0.0022626330344423
scalar dtelecom_network.node[15].core_layer 	interests[15] 	0
scalar dtelecom_network.node[15].core_layer 	data[15] 	0
scalar dtelecom_network.node[15].content_store 	p_hit[15] 	-nan
scalar dtelecom_network.node[15].content_store 	hits[15] 	0
scalar dtelecom_network.node[15].content_store 	misses[15] 	0
scalar dtelecom_network.node[15].content_store 	decision_yes[15] 	0
scalar dtelecom_network.node[15].content_store 	decision_no[15] 	0
scalar dtelecom_network.node[15].content_store 	decision_ratio[15] 	0
scalar dtelecom_network.node[16].core_layer 	interests[16] 	0
scalar dtelecom_network.node[16].core_layer 	data[16] 	0
scalar dtelecom_network.node[16].content_store 	p_hit[16] 	-nan
scalar dtelecom_network.node[16].content_store 	hits[16] 	0
scalar dtelecom_network.node[16].content_store 	misses[16] 	0
scalar dtelecom_network.node[16].content_store 	decision_yes[16] 	0
scalar dtelecom_network.node[16].content_store 	decision_no[16] 	0
scalar dtelecom_network.node[16].content_store 	decision_ratio[16] 	0
scalar dtelecom_network.node[17].core_layer 	interests[17] 	12945
scalar dtelecom_network.node[17].core_layer 	data[17] 	9540
scalar dtelecom_network.node[17].content_store 	p_hit[17] 	0.26295867130166
scalar dtelecom_network.node[17].content_store 	hits[17] 	3404
scalar dtelecom_network.node[17].content_store 	misses[17] 	9541
scalar dtelecom_network.node[17].content_store 	decision_yes[17] 	8
scalar dtelecom_network.node[17].content_store 	decision_no[17] 	9532
scalar dtelecom_network.node[17].content_store 	decision_ratio[17] 	0.00083857442348008
scalar dtelecom_network.node[18].core_layer 	interests[18] 	0
scalar dtelecom_network.node[18].core_layer 	data[18] 	0
scalar dtelecom_network.node[18].content_store 	p_hit[18] 	-nan
scalar dtelecom_network.node[18].content_store 	hits[18] 	0
scalar dtelecom_network.node[18].content_store 	misses[18] 	0
scalar dtelecom_network.node[18].content_store 	decision_yes[18] 	0
scalar dtelecom_network.node[18].content_store 	decision_no[18] 	0
scalar dtelecom_network.node[18].content_store 	decision_ratio[18] 	0
scalar dtelecom_network.node[19].core_layer 	interests[19] 	15723
scalar dtelecom_network.node[19].core_layer 	repo_load[19] 	11362
scalar dtelecom_network.node[19].core_layer 	data[19] 	0
scalar dtelecom_network.node[19].content_store 	p_hit[19] 	0.27736437066718
scalar dtelecom_network.node[19].content_store 	hits[19] 	4361
scalar dtelecom_network.node[19].content_store 	misses[19] 	11362
scalar dtelecom_network.node[19].content_store 	decision_yes[19] 	19
scalar dtelecom_network.node[19].content_store 	decision_no[19] 	11343
scalar dtelecom_network.node[19].content_store 	decision_ratio[19] 	0.0016722408026756
scalar dtelecom_network.node[20].core_layer 	interests[20] 	0
scalar dtelecom_network.node[20].core_layer 	data[20] 	0
scalar dtelecom_network.node[20].content_store 	p_hit[20] 	-nan
scalar dtelecom_network.node[20].content_store 	hits[20] 	0
scalar dtelecom_network.node[20].content_store 	misses[20] 	0
scalar dtelecom_network.node[20].content_store 	decision_yes[20] 	0
scalar dtelecom_network.node[20].content_store 	decision_no[20] 	0
scalar dtelecom_network.node[20].content_store 	decision_ratio[20] 	0
scalar dtelecom_network.node[21].core_layer 	interests[21] 	0
scalar dtelecom_network.node[21].core_layer 	data[21] 	0
scalar dtelecom_network.node[21].content_store 	p_hit[21] 	-nan
scalar dtelecom_network.node[21].content_store 	hits[21] 	0
scalar dtelecom_network.node[21].content_store 	misses[21] 	0
scalar dtelecom_network.node[21].content_store 	decision_yes[21] 	0
scalar dtelecom_network.node[21].content_store 	decision_no[21] 	0
scalar dtelecom_network.node[21].content_store 	decision_ratio[21] 	0
scalar dtelecom_network.node[22].core_layer 	interests[22] 	11910
scalar dtelecom_network.node[22].core_layer 	data[22] 	8561
scalar dtelecom_network.node[22].content_store 	p_hit[22] 	0.28119227539882
scalar dtelecom_network.node[22].content_store 	hits[22] 	3349
scalar dtelecom_network.node[22].content_store 	misses[22] 	8561
scalar dtelecom_network.node[22].content_store 	decision_yes[22] 	8
scalar dtelecom_network.node[22].content_store 	decision_no[22] 	8553
scalar dtelecom_network.node[22].content_store 	decision_ratio[22] 	0.00093447027216447
scalar dtelecom_network.node[23].core_layer 	interests[23] 	36655
scalar dtelecom_network.node[23].core_layer 	repo_load[23] 	11970
scalar dtelecom_network.node[23].core_layer 	data[23] 	17538
scalar dtelecom_network.node[23].content_store 	p_hit[23] 	0.1949802209794
scalar dtelecom_network.node[23].content_store 	hits[23] 	7147
scalar dtelecom_network.node[23].content_store 	misses[23] 	29508
scalar dtelecom_network.node[23].content_store 	decision_yes[23] 	18
scalar dtelecom_network.node[23].content_store 	decision_no[23] 	29490
scalar dtelecom_network.node[23].content_store 	decision_ratio[23] 	0.00061000406669378
scalar dtelecom_network.node[24].core_layer 	interests[24] 	0
scalar dtelecom_network.node[24].core_layer 	data[24] 	0
scalar dtelecom_network.node[24].content_store 	p_hit[24] 	-nan
scalar dtelecom_network.node[24].content_store 	hits[24] 	0
scalar dtelecom_network.node[24].content_store 	misses[24] 	0
scalar dtelecom_network.node[24].content_store 	decision_yes[24] 	0
scalar dtelecom_network.node[24].content_store 	decision_no[24] 	0
scalar dtelecom_network.node[24].content_store 	decision_ratio[24] 	0
scalar dtelecom_network.node[25].core_layer 	interests[25] 	16355
scalar dtelecom_network.node[25].core_layer 	repo_load[25] 	11428
scalar dtelecom_network.node[25].core_layer 	data[25] 	0
scalar dtelecom_network.node[25].content_store 	p_hit[25] 	0.30125343931519
scalar dtelecom_network.node[25].content_store 	hits[25] 	4927
scalar dtelecom_network.node[25].content_store 	misses[25] 	11428
scalar dtelecom_network.node[25].content_store 	decision_yes[25] 	34
scalar dtelecom_network.node[25].content_store 	decision_no[25] 	11394
scalar dtelecom_network.node[25].content_store 	decision_ratio[25] 	0.0029751487574379
scalar dtelecom_network.node[26].core_layer 	interests[26] 	1006
scalar dtelecom_network.node[26].core_layer 	data[26] 	796
scalar dtelecom_network.node[26].content_store 	p_hit[26] 	0.20874751491054
scalar dtelecom_network.node[26].content_store 	hits[26] 	210
scalar dtelecom_network.node[26].content_store 	misses[26] 	796
scalar dtelecom_network.node[26].content_store 	decision_yes[26] 	4
scalar dtelecom_network.node[26].content_store 	decision_no[26] 	792
scalar dtelecom_network.node[26].content_store 	decision_ratio[26] 	0.0050251256281407
scalar dtelecom_network.node[27].core_layer 	interests[27] 	0
scalar dtelecom_network.node[27].core_layer 	data[27] 	0
scalar dtelecom_network.node[27].content_store 	p_hit[27] 	-nan
scalar dtelecom_network.node[27].content_store 	hits[27] 	0
scalar dtelecom_network.node[27].content_store 	misses[27] 	0
scalar dtelecom_network.node[27].content_store 	decision_yes[27] 	0
scalar dtelecom_network.node[27].content_store 	decision_no[27] 	0
scalar dtelecom_network.node[27].content_store 	decision_ratio[27] 	0
scalar dtelecom_network.node[28].core_layer 	interests[28] 	12088
scalar dtelecom_network.node[28].core_layer 	data[28] 	8567
scalar dtelecom_network.node[28].content_store 	p_hit[28] 	0.2912806088683
scalar dtelecom_network.node[28].content_store 	hits[28] 	3521
scalar dtelecom_network.node[28].content_store 	misses[28] 	8567
scalar dtelecom_network.node[28].content_store 	decision_yes[28] 	7
scalar dtelecom_network.node[28].content_store 	decision_no[28] 	8560
scalar dtelecom_network.node[28].content_store 	decision_ratio[28] 	0.00081708882922843
scalar dtelecom_network.node[29].core_layer 	interests[29] 	0
scalar dtelecom_network.node[29].core_layer 	data[29] 	0
scalar dtelecom_network.node[29].content_store 	p_hit[29] 	-nan
scalar dtelecom_network.node[29].content_store 	hits[29] 	0
scalar dtelecom_network.node[29].content_store 	misses[29] 	0
scalar dtelecom_network.node[29].content_store 	decision_yes[29] 	0
scalar dtelecom_network.node[29].content_store 	decision_no[29] 	0
scalar dtelecom_network.node[29].content_store 	decision_ratio[29] 	0
scalar dtelecom_network.node[30].core_layer 	interests[30] 	12147
scalar dtelecom_network.node[30].core_layer 	data[30] 	8791
scalar dtelecom_network.node[30].content_store 	p_hit[30] 	0.2761998847452
scalar dtelecom_network.node[30].content_store 	hits[30] 	3355
scalar dtelecom_network.node[30].content_store 	misses[30] 	8792
scalar dtelecom_network.node[30].content_store 	decision_yes[30] 	9
scalar dtelecom_network.node[30].content_store 	decision_no[30] 	8782
scalar dtelecom_network.node[30].content_store 	decision_ratio[30] 	0.00102377431464
scalar dtelecom_network.node[31].core_layer 	interests[31] 	11914
scalar dtelecom_network.node[31].core_layer 	data[31] 	8553
scalar dtelecom_network.node[31].content_store 	p_hit[31] 	0.28193721671983
scalar dtelecom_network.node[31].content_store 	hits[31] 	3359
scalar dtelecom_network.node[31].content_store 	misses[31] 	8555
scalar dtelecom_network.node[31].content_store 	decision_yes[31] 	4
scalar dtelecom_network.node[31].content_store 	decision_no[31] 	8549
scalar dtelecom_network.node[31].content_store 	decision_ratio[31] 	0.00046767216181457
scalar dtelecom_network.node[32].core_layer 	interests[32] 	11923
scalar dtelecom_network.node[32].core_layer 	data[32] 	8494
scalar dtelecom_network.node[32].content_store 	p_hit[32] 	0.28759540384132
scalar dtelecom_network.node[32].content_store 	hits[32] 	3429
scalar dtelecom_network.node[32].content_store 	misses[32] 	8494
scalar dtelecom_network.node[32].content_store 	decision_yes[32] 	5
scalar dtelecom_network.node[32].content_store 	decision_no[32] 	8489
scalar dtelecom_network.node[32].content_store 	decision_ratio[32] 	0.00058865081233812
scalar dtelecom_network.node[33].core_layer 	interests[33] 	11733
scalar dtelecom_network.node[33].core_layer 	data[33] 	8390
scalar dtelecom_network.node[33].content_store 	p_hit[33] 	0.28483763743288
scalar dtelecom_network.node[33].content_store 	hits[33] 	3342
scalar dtelecom_network.node[33].content_store 	misses[33] 	8391
scalar dtelecom_network.node[33].content_store 	decision_yes[33] 	3
scalar dtelecom_network.node[33].content_store 	decision_no[33] 	8387
scalar dtelecom_network.node[33].content_store 	decision_ratio[33] 	0.00035756853396901
scalar dtelecom_network.node[34].core_layer 	interests[34] 	0
scalar dtelecom_network.node[34].core_layer 	data[34] 	0
scalar dtelecom_network.node[34].content_store 	p_hit[34] 	-nan
scalar dtelecom_network.node[34].content_store 	hits[34] 	0
scalar dtelecom_network.node[34].content_store 	misses[34] 	0
scalar dtelecom_network.node[34].content_store 	decision_yes[34] 	0
scalar dtelecom_network.node[34].content_store 	decision_no[34] 	0
scalar dtelecom_network.node[34].content_store 	decision_ratio[34] 	0
scalar dtelecom_network.node[35].core_layer 	interests[35] 	0
scalar dtelecom_network.node[35].core_layer 	data[35] 	0
scalar dtelecom_network.node[35].content_store 	p_hit[35] 	-nan
scalar dtelecom_network.node[35].content_store 	hits[35] 	0
scalar dtelecom_network.node[35].content_store 	misses[35] 	0
scalar dtelecom_network.node[35].content_store 	decision_yes[35] 	0
scalar dtelecom_network.node[35].content_store 	decision_no[35] 	0
scalar dtelecom_network.node[35].content_store 	decision_ratio[35] 	0
scalar dtelecom_network.node[36].core_layer 	interests[36] 	12025
scalar dtelecom_network.node[36].core_layer 	data[36] 	8511
scalar dtelecom_network.node[36].content_store 	p_hit[36] 	0.29222453222453
scalar dtelecom_network.node[36].content_store 	hits[36] 	3514
scalar dtelecom_network.node[36].content_store 	misses[36] 	8511
scalar dtelecom_network.node[36].content_store 	decision_yes[36] 	7
scalar dtelecom_network.node[36].content_store 	decision_no[36] 	8504
scalar dtelecom_network.node[36].content_store 	decision_ratio[36] 	0.00082246504523558
scalar dtelecom_network.node[37].core_layer 	interests[37] 	12079
scalar dtelecom_network.node[37].core_layer 	data[37] 	8595
scalar dtelecom_network.node[37].content_store 	p_hit[37] 	0.2884344730524
scalar dtelecom_network.node[37].content_store 	hits[37] 	3484
scalar dtelecom_network.node[37].content_store 	misses[37] 	8595
scalar dtelecom_network.node[37].content_store 	decision_yes[37] 	7
scalar dtelecom_network.node[37].content_store 	decision_no[37] 	8588
scalar dtelecom_network.node[37].content_store 	decision_ratio[37] 	0.00081442699243746
scalar dtelecom_network.node[38].core_layer 	interests[38] 	0
scalar dtelecom_network.node[38].core_layer 	data[38] 	0
scalar dtelecom_network.node[38].content_store 	p_hit[38] 	-nan
scalar dtelecom_network.node[38].content_store 	hits[38] 	0
scalar dtelecom_network.node[38].content_store 	misses[38] 	0
scalar dtelecom_network.node[38].content_store 	decision_yes[38] 	0
scalar dtelecom_network.node[38].content_store 	decision_no[38] 	0
scalar dtelecom_network.node[38].content_store 	decision_ratio[38] 	0
scalar dtelecom_network.node[39].core_layer 	interests[39] 	16021
scalar dtelecom_network.node[39].core_layer 	repo_load[39] 	12000
scalar dtelecom_network.node[39].core_layer 	data[39] 	0
scalar dtelecom_network.node[39].content_store 	p_hit[39] 	0.25098308470133
scalar dtelecom_network.node[39].content_store 	hits[39] 	4021
scalar dtelecom_network.node[39].content_store 	misses[39] 	12000
scalar dtelecom_network.node[39].content_store 	decision_yes[39] 	29
scalar dtelecom_network.node[39].content_store 	decision_no[39] 	11971
scalar dtelecom_network.node[39].content_store 	decision_ratio[39] 	0.0024166666666667
scalar dtelecom_network.node[40].core_layer 	interests[40] 	12756
scalar dtelecom_network.node[40].core_layer 	data[40] 	9298
scalar dtelecom_network.node[40].content_store 	p_hit[40] 	0.27108811539668
scalar dtelecom_network.node[40].content_store 	hits[40] 	3458
scalar dtelecom_network.node[40].content_store 	misses[40] 	9298
scalar dtelecom_network.node[40].content_store 	decision_yes[40] 	7
scalar dtelecom_network.node[40].content_store 	decision_no[40] 	9291
scalar dtelecom_network.node[40].content_store 	decision_ratio[40] 	0.00075285007528501
scalar dtelecom_network.node[41].core_layer 	interests[41] 	0
scalar dtelecom_network.node[41].core_layer 	data[41] 	0
scalar dtelecom_network.node[41].content_store 	p_hit[41] 	-nan
scalar dtelecom_network.node[41].content_store 	hits[41] 	0
scalar dtelecom_network.node[41].content_store 	misses[41] 	0
scalar dtelecom_network.node[41].content_store 	decision_yes[41] 	0
scalar dtelecom_network.node[41].content_store 	decision_no[41] 	0
scalar dtelecom_network.node[41].content_store 	decision_ratio[41] 	0
scalar dtelecom_network.node[42].core_layer 	interests[42] 	28300
scalar dtelecom_network.node[42].core_layer 	repo_load[42] 	12598
scalar dtelecom_network.node[42].core_layer 	data[42] 	9163
scalar dtelecom_network.node[42].content_store 	p_hit[42] 	0.23098939929329
scalar dtelecom_network.node[42].content_store 	hits[42] 	6537
scalar dtelecom_network.node[42].content_store 	misses[42] 	21763
scalar dtelecom_network.node[42].content_store 	decision_yes[42] 	26
scalar dtelecom_network.node[42].content_store 	decision_no[42] 	21735
scalar dtelecom_network.node[42].content_store 	decision_ratio[42] 	0.0011947980331786
scalar dtelecom_network.node[43].core_layer 	interests[43] 	0
scalar dtelecom_network.node[43].core_layer 	data[43] 	0
scalar dtelecom_network.node[43].content_store 	p_hit[43] 	-nan
scalar dtelecom_network.node[43].content_store 	hits[43] 	0
scalar dtelecom_network.node[43].content_store 	misses[43] 	0
scalar dtelecom_network.node[43].content_store 	decision_yes[43] 	0
scalar dtelecom_network.node[43].content_store 	decision_no[43] 	0
scalar dtelecom_network.node[43].content_store 	decision_ratio[43] 	0
scalar dtelecom_network.node[44].core_layer 	interests[44] 	16813
scalar dtelecom_network.node[44].core_layer 	repo_load[44] 	11707
scalar dtelecom_network.node[44].core_layer 	data[44] 	0
scalar dtelecom_network.node[44].content_store 	p_hit[44] 	0.30369357045144
scalar dtelecom_network.node[44].content_store 	hits[44] 	5106
scalar dtelecom_network.node[44].content_store 	misses[44] 	11707
scalar dtelecom_network.node[44].content_store 	decision_yes[44] 	30
scalar dtelecom_network.node[44].content_store 	decision_no[44] 	11677
scalar dtelecom_network.node[44].content_store 	decision_ratio[44] 	0.0025625694029213
scalar dtelecom_network.node[45].core_layer 	interests[45] 	12045
scalar dtelecom_network.node[45].core_layer 	data[45] 	8571
scalar dtelecom_network.node[45].content_store 	p_hit[45] 	0.28825238688252
scalar dtelecom_network.node[45].content_store 	hits[45] 	3472
scalar dtelecom_network.node[45].content_store 	misses[45] 	8573
scalar dtelecom_network.node[45].content_store 	decision_yes[45] 	2
scalar dtelecom_network.node[45].content_store 	decision_no[45] 	8569
scalar dtelecom_network.node[45].content_store 	decision_ratio[45] 	0.00023334500058336
scalar dtelecom_network.node[46].core_layer 	interests[46] 	12060
scalar dtelecom_network.node[46].core_layer 	data[46] 	8571
scalar dtelecom_network.node[46].content_store 	p_hit[46] 	0.28922056384743
scalar dtelecom_network.node[46].content_store 	hits[46] 	3488
scalar dtelecom_network.node[46].content_store 	misses[46] 	8572
scalar dtelecom_network.node[46].content_store 	decision_yes[46] 	5
scalar dtelecom_network.node[46].content_store 	decision_no[46] 	8566
scalar dtelecom_network.node[46].content_store 	decision_ratio[46] 	0.00058336250145841
scalar dtelecom_network.node[47].core_layer 	interests[47] 	17900
scalar dtelecom_network.node[47].core_layer 	repo_load[47] 	12674
scalar dtelecom_network.node[47].core_layer 	data[47] 	0
scalar dtelecom_network.node[47].content_store 	p_hit[47] 	0.29195530726257
scalar dtelecom_network.node[47].content_store 	hits[47] 	5226
scalar dtelecom_network.node[47].content_store 	misses[47] 	12674
scalar dtelecom_network.node[47].content_store 	decision_yes[47] 	28
scalar dtelecom_network.node[47].content_store 	decision_no[47] 	12646
scalar dtelecom_network.node[47].content_store 	decision_ratio[47] 	0.0022092472778917
scalar dtelecom_network.node[48].core_layer 	interests[48] 	27880
scalar dtelecom_network.node[48].core_layer 	repo_load[48] 	12292
scalar dtelecom_network.node[48].core_layer 	data[48] 	9035
scalar dtelecom_network.node[48].content_store 	p_hit[48] 	0.23504304160689
scalar dtelecom_network.node[48].content_store 	hits[48] 	6553
scalar dtelecom_network.node[48].content_store 	misses[48] 	21327
scalar dtelecom_network.node[48].content_store 	decision_yes[48] 	22
scalar dtelecom_network.node[48].content_store 	decision_no[48] 	21305
scalar dtelecom_network.node[48].content_store 	decision_ratio[48] 	0.0010315562432597
scalar dtelecom_network.node[49].core_layer 	interests[49] 	11917
scalar dtelecom_network.node[49].core_layer 	data[49] 	8514
scalar dtelecom_network.node[49].content_store 	p_hit[49] 	0.2855584459176
scalar dtelecom_network.node[49].content_store 	hits[49] 	3403
scalar dtelecom_network.node[49].content_store 	misses[49] 	8514
scalar dtelecom_network.node[49].content_store 	decision_yes[49] 	7
scalar dtelecom_network.node[49].content_store 	decision_no[49] 	8507
scalar dtelecom_network.node[49].content_store 	decision_ratio[49] 	0.00082217524077989
scalar dtelecom_network.node[50].core_layer 	interests[50] 	11979
scalar dtelecom_network.node[50].core_layer 	data[50] 	8609
scalar dtelecom_network.node[50].content_store 	p_hit[50] 	0.28124217380416
scalar dtelecom_network.node[50].content_store 	hits[50] 	3369
scalar dtelecom_network.node[50].content_store 	misses[50] 	8610
scalar dtelecom_network.node[50].content_store 	decision_yes[50] 	4
scalar dtelecom_network.node[50].content_store 	decision_no[50] 	8605
scalar dtelecom_network.node[50].content_store 	decision_ratio[50] 	0.00046463003833198
scalar dtelecom_network.node[51].core_layer 	interests[51] 	11869
scalar dtelecom_network.node[51].core_layer 	data[51] 	8429
scalar dtelecom_network.node[51].content_store 	p_hit[51] 	0.28983065127643
scalar dtelecom_network.node[51].content_store 	hits[51] 	3440
scalar dtelecom_network.node[51].content_store 	misses[51] 	8429
scalar dtelecom_network.node[51].content_store 	decision_yes[51] 	3
scalar dtelecom_network.node[51].content_store 	decision_no[51] 	8426
scalar dtelecom_network.node[51].content_store 	decision_ratio[51] 	0.0003559141060624
scalar dtelecom_network.node[52].core_layer 	interests[52] 	0
scalar dtelecom_network.node[52].core_layer 	data[52] 	0
scalar dtelecom_network.node[52].content_store 	p_hit[52] 	-nan
scalar dtelecom_network.node[52].content_store 	hits[52] 	0
scalar dtelecom_network.node[52].content_store 	misses[52] 	0
scalar dtelecom_network.node[52].content_store 	decision_yes[52] 	0
scalar dtelecom_network.node[52].content_store 	decision_no[52] 	0
scalar dtelecom_network.node[52].content_store 	decision_ratio[52] 	0
scalar dtelecom_network.node[53].core_layer 	interests[53] 	11832
scalar dtelecom_network.node[53].core_layer 	data[53] 	8488
scalar dtelecom_network.node[53].content_store 	p_hit[53] 	0.28262339418526
scalar dtelecom_network.node[53].content_store 	hits[53] 	3344
scalar dtelecom_network.node[53].content_store 	misses[53] 	8488
scalar dtelecom_network.node[53].content_store 	decision_yes[53] 	5
scalar dtelecom_network.node[53].content_store 	decision_no[53] 	8483
scalar dtelecom_network.node[53].content_store 	decision_ratio[53] 	0.00058906691800188
scalar dtelecom_network.node[54].core_layer 	interests[54] 	12131
scalar dtelecom_network.node[54].core_layer 	data[54] 	8687
scalar dtelecom_network.node[54].content_store 	p_hit[54] 	0.28398318357926
scalar dtelecom_network.node[54].content_store 	hits[54] 	3445
scalar dtelecom_network.node[54].content_store 	misses[54] 	8686
scalar dtelecom_network.node[54].content_store 	decision_yes[54] 	5
scalar dtelecom_network.node[54].content_store 	decision_no[54] 	8682
scalar dtelecom_network.node[54].content_store 	decision_ratio[54] 	0.00057557269483136
scalar dtelecom_network.node[55].core_layer 	interests[55] 	28648
scalar dtelecom_network.node[55].core_layer 	repo_load[55] 	12795
scalar dtelecom_network.node[55].core_layer 	data[55] 	9099
scalar dtelecom_network.node[55].content_store 	p_hit[55] 	0.23575816810947
scalar dtelecom_network.node[55].content_store 	hits[55] 	6754
scalar dtelecom_network.node[55].content_store 	misses[55] 	21894
scalar dtelecom_network.node[55].content_store 	decision_yes[55] 	34
scalar dtelecom_network.node[55].content_store 	decision_no[55] 	21860
scalar dtelecom_network.node[55].content_store 	decision_ratio[55] 	0.0015529368776834
scalar dtelecom_network.node[56].core_layer 	interests[56] 	11799
scalar dtelecom_network.node[56].core_layer 	data[56] 	8495
scalar dtelecom_network.node[56].content_store 	p_hit[56] 	0.28002373082465
scalar dtelecom_network.node[56].content_store 	hits[56] 	3304
scalar dtelecom_network.node[56].content_store 	misses[56] 	8495
scalar dtelecom_network.node[56].content_store 	decision_yes[56] 	8
scalar dtelecom_network.node[56].content_store 	decision_no[56] 	8487
scalar dtelecom_network.node[56].content_store 	decision_ratio[56] 	0.00094173042966451
scalar dtelecom_network.node[57].core_layer 	interests[57] 	27855
scalar dtelecom_network.node[57].core_layer 	repo_load[57] 	12067
scalar dtelecom_network.node[57].core_layer 	data[57] 	9119
scalar dtelecom_network.node[57].content_store 	p_hit[57] 	0.23941841680129
scalar dtelecom_network.node[57].content_store 	hits[57] 	6669
scalar dtelecom_network.node[57].content_store 	misses[57] 	21186
scalar dtelecom_network.node[57].content_store 	decision_yes[57] 	28
scalar dtelecom_network.node[57].content_store 	decision_no[57] 	21158
scalar dtelecom_network.node[57].content_store 	decision_ratio[57] 	0.0013216274898518
scalar dtelecom_network.node[58].core_layer 	interests[58] 	12018
scalar dtelecom_network.node[58].core_layer 	data[58] 	8512
scalar dtelecom_network.node[58].content_store 	p_hit[58] 	0.29181228157763
scalar dtelecom_network.node[58].content_store 	hits[58] 	3507
scalar dtelecom_network.node[58].content_store 	misses[58] 	8511
scalar dtelecom_network.node[58].content_store 	decision_yes[58] 	4
scalar dtelecom_network.node[58].content_store 	decision_no[58] 	8508
scalar dtelecom_network.node[58].content_store 	decision_ratio[58] 	0.00046992481203008
scalar dtelecom_network.node[59].core_layer 	interests[59] 	12046
scalar dtelecom_network.node[59].core_layer 	data[59] 	8604
scalar dtelecom_network.node[59].content_store 	p_hit[59] 	0.28573800431679
scalar dtelecom_network.node[59].content_store 	hits[59] 	3442
scalar dtelecom_network.node[59].content_store 	misses[59] 	8604
scalar dtelecom_network.node[59].content_store 	decision_yes[59] 	5
scalar dtelecom_network.node[59].content_store 	decision_no[59] 	8599
scalar dtelecom_network.node[59].content_store 	decision_ratio[59] 	0.00058112505811251
scalar dtelecom_network.node[60].core_layer 	interests[60] 	0
scalar dtelecom_network.node[60].core_layer 	data[60] 	0
scalar dtelecom_network.node[60].content_store 	p_hit[60] 	-nan
scalar dtelecom_network.node[60].content_store 	hits[60] 	0
scalar dtelecom_network.node[60].content_store 	misses[60] 	0
scalar dtelecom_network.node[60].content_store 	decision_yes[60] 	0
scalar dtelecom_network.node[60].content_store 	decision_no[60] 	0
scalar dtelecom_network.node[60].content_store 	decision_ratio[60] 	0
scalar dtelecom_network.node[61].core_layer 	interests[61] 	0
scalar dtelecom_network.node[61].core_layer 	data[61] 	0
scalar dtelecom_network.node[61].content_store 	p_hit[61] 	-nan
scalar dtelecom_network.node[61].content_store 	hits[61] 	0
scalar dtelecom_network.node[61].content_store 	misses[61] 	0
scalar dtelecom_network.node[61].content_store 	decision_yes[61] 	0
scalar dtelecom_network.node[61].content_store 	decision_no[61] 	0
scalar dtelecom_network.node[61].content_store 	decision_ratio[61] 	0
scalar dtelecom_network.node[62].core_layer 	interests[62] 	12046
scalar dtelecom_network.node[62].core_layer 	data[62] 	8707
scalar dtelecom_network.node[62].content_store 	p_hit[62] 	0.27727046322431
scalar dtelecom_network.node[62].content_store 	hits[62] 	3340
scalar dtelecom_network.node[62].content_store 	misses[62] 	8706
scalar dtelecom_network.node[62].content_store 	decision_yes[62] 	5
scalar dtelecom_network.node[62].content_store 	decision_no[62] 	8702
scalar dtelecom_network.node[62].content_store 	decision_ratio[62] 	0.00057425060296313
scalar dtelecom_network.node[63].core_layer 	interests[63] 	0
scalar dtelecom_network.node[63].core_layer 	data[63] 	0
scalar dtelecom_network.node[63].content_store 	p_hit[63] 	-nan
scalar dtelecom_network.node[63].content_store 	hits[63] 	0
scalar dtelecom_network.node[63].content_store 	misses[63] 	0
scalar dtelecom_network.node[63].content_store 	decision_yes[63] 	0
scalar dtelecom_network.node[63].content_store 	decision_no[63] 	0
scalar dtelecom_network.node[63].content_store 	decision_ratio[63] 	0
scalar dtelecom_network.node[64].core_layer 	interests[64] 	0
scalar dtelecom_network.node[64].core_layer 	data[64] 	0
scalar dtelecom_network.node[64].content_store 	p_hit[64] 	-nan
scalar dtelecom_network.node[64].content_store 	hits[64] 	0
scalar dtelecom_network.node[64].content_store 	misses[64] 	0
scalar dtelecom_network.node[64].content_store 	decision_yes[64] 	0
scalar dtelecom_network.node[64].content_store 	decision_no[64] 	0
scalar dtelecom_network.node[64].content_store 	decision_ratio[64] 	0
scalar dtelecom_network.node[65].core_layer 	interests[65] 	0
scalar dtelecom_network.node[65].core_layer 	data[65] 	0
scalar dtelecom_network.node[65].content_store 	p_hit[65] 	-nan
scalar dtelecom_network.node[65].content_store 	hits[65] 	0
scalar dtelecom_network.node[65].content_store 	misses[65] 	0
scalar dtelecom_network.node[65].content_store 	decision_yes[65] 	0
scalar dtelecom_network.node[65].content_store 	decision_no[65] 	0
scalar dtelecom_network.node[65].content_store 	decision_ratio[65] 	0
scalar dtelecom_network.node[66].core_layer 	interests[66] 	11988
scalar dtelecom_network.node[66].core_layer 	data[66] 	8551
scalar dtelecom_network.node[66].content_store 	p_hit[66] 	0.28653653653654
scalar dtelecom_network.node[66].content_store 	hits[66] 	3435
scalar dtelecom_network.node[66].content_store 	misses[66] 	8553
scalar dtelecom_network.node[66].content_store 	decision_yes[66] 	5
scalar dtelecom_network.node[66].content_store 	decision_no[66] 	8546
scalar dtelecom_network.node[66].content_store 	decision_ratio[66] 	0.00058472693252251
scalar dtelecom_network.node[67].core_layer 	interests[67] 	24144
scalar dtelecom_network.node[67].core_layer 	repo_load[67] 	11469
scalar dtelecom_network.node[67].core_layer 	data[67] 	8755
scalar dtelecom_network.node[67].content_store 	p_hit[67] 	0.16240059642147
scalar dtelecom_network.node[67].content_store 	hits[67] 	3921
scalar dtelecom_network.node[67].content_store 	misses[67] 	20223
scalar dtelecom_network.node[67].content_store 	decision_yes[67] 	17
scalar dtelecom_network.node[67].content_store 	decision_no[67] 	20207
scalar dtelecom_network.node[67].content_store 	decision_ratio[67] 	0.00084058544303797
scalar dtelecom_network.client[3] 	hdistance[3] 	1.2575605680869
scalar dtelecom_network.client[3] 	downloads[3] 	11970
scalar dtelecom_network.client[3] 	avg_time[3] 	0.00970722636
scalar dtelecom_network.client[4] 	hdistance[4] 	1.3502219244619
scalar dtelecom_network.client[4] 	downloads[4] 	11941
scalar dtelecom_network.client[4] 	avg_time[4] 	0.051422817793
scalar dtelecom_network.client[8] 	hdistance[8] 	1.946555427061
scalar dtelecom_network.client[8] 	downloads[8] 	12106
scalar dtelecom_network.client[8] 	avg_time[8] 	0.013097038019
scalar dtelecom_network.client[9] 	hdistance[9] 	1.7735928903936
scalar dtelecom_network.client[9] 	downloads[9] 	11815
scalar dtelecom_network.client[9] 	avg_time[9] 	0.012399551529
scalar dtelecom_network.client[17] 	hdistance[17] 	1.8084064821067
scalar dtelecom_network.client[17] 	downloads[17] 	11848
scalar dtelecom_network.client[17] 	avg_time[17] 	0.010315805297
scalar dtelecom_network.client[22] 	hdistance[22] 	1.8465155331654
scalar dtelecom_network.client[22] 	downloads[22] 	11910
scalar dtelecom_network.client[22] 	avg_time[22] 	0.012051745129
scalar dtelecom_network.client[23] 	hdistance[23] 	1.8365457453076
scalar dtelecom_network.client[23] 	downloads[23] 	11881
scalar dtelecom_network.client[23] 	avg_time[23] 	0.011483567614
scalar dtelecom_network.client[28] 	hdistance[28] 	1.8188285903375
scalar dtelecom_network.client[28] 	downloads[28] 	12088
scalar dtelecom_network.client[28] 	avg_time[28] 	0.012634504604
scalar dtelecom_network.client[30] 	hdistance[30] 	1.8533673637411
scalar dtelecom_network.client[30] 	downloads[30] 	12146
scalar dtelecom_network.client[30] 	avg_time[30] 	0.012055026674
scalar dtelecom_network.client[31] 	hdistance[31] 	1.8504869039624
scalar dtelecom_network.client[31] 	downloads[31] 	11912
scalar dtelecom_network.client[31] 	avg_time[31] 	0.012973236212
scalar dtelecom_network.client[32] 	hdistance[32] 	1.8244569319802
scalar dtelecom_network.client[32] 	downloads[32] 	11923
scalar dtelecom_network.client[32] 	avg_time[32] 	0.009705789769
scalar dtelecom_network.client[33] 	hdistance[33] 	1.740964882373
scalar dtelecom_network.client[33] 	downloads[33] 	11732
scalar dtelecom_network.client[33] 	avg_time[33] 	0.012058852964
scalar dtelecom_network.client[36] 	hdistance[36] 	1.8130561330561
scalar dtelecom_network.client[36] 	downloads[36] 	12025
scalar dtelecom_network.client[36] 	avg_time[36] 	0.011958016264
scalar dtelecom_network.client[37] 	hdistance[37] 	1.7845848166239
scalar dtelecom_network.client[37] 	downloads[37] 	12079
scalar dtelecom_network.client[37] 	avg_time[37] 	0.010785400291
scalar dtelecom_network.client[40] 	hdistance[40] 	1.6411330049261
scalar dtelecom_network.client[40] 	downloads[40] 	12180
scalar dtelecom_network.client[40] 	avg_time[40] 	0.011543584994
scalar dtelecom_network.client[42] 	hdistance[42] 	1.9655143620574
scalar dtelecom_network.client[42] 	downloads[42] 	11976
scalar dtelecom_network.client[42] 	avg_time[42] 	0.013433237134
scalar dtelecom_network.client[45] 	hdistance[45] 	1.8303578842481
scalar dtelecom_network.client[45] 	downloads[45] 	12043
scalar dtelecom_network.client[45] 	avg_time[45] 	0.011639002015
scalar dtelecom_network.client[46] 	hdistance[46] 	1.8256903557509
scalar dtelecom_network.client[46] 	downloads[46] 	12059
scalar dtelecom_network.client[46] 	avg_time[46] 	0.013786625742
scalar dtelecom_network.client[48] 	hdistance[48] 	1.9444722361181
scalar dtelecom_network.client[48] 	downloads[48] 	11994
scalar dtelecom_network.client[48] 	avg_time[48] 	0.013145233554
scalar dtelecom_network.client[49] 	hdistance[49] 	1.8383821431568
scalar dtelecom_network.client[49] 	downloads[49] 	11917
scalar dtelecom_network.client[49] 	avg_time[49] 	0.011044318881
scalar dtelecom_network.client[50] 	hdistance[50] 	1.8515611955251
scalar dtelecom_network.client[50] 	downloads[50] 	11978
scalar dtelecom_network.client[50] 	avg_time[50] 	0.010758272046
scalar dtelecom_network.client[51] 	hdistance[51] 	1.7422697784144
scalar dtelecom_network.client[51] 	downloads[51] 	11869
scalar dtelecom_network.client[51] 	avg_time[51] 	0.011412530274
scalar dtelecom_network.client[53] 	hdistance[53] 	1.8422075726842
scalar dtelecom_network.client[53] 	downloads[53] 	11832
scalar dtelecom_network.client[53] 	avg_time[53] 	0.010879398583
scalar dtelecom_network.client[54] 	hdistance[54] 	1.7573359709858
scalar dtelecom_network.client[54] 	downloads[54] 	12132
scalar dtelecom_network.client[54] 	avg_time[54] 	0.012303562249
scalar dtelecom_network.client[55] 	hdistance[55] 	1.9254433890897
scalar dtelecom_network.client[55] 	downloads[55] 	11897
scalar dtelecom_network.client[55] 	avg_time[55] 	0.016421157669
scalar dtelecom_network.client[56] 	hdistance[56] 	1.8057462496822
scalar dtelecom_network.client[56] 	downloads[56] 	11799
scalar dtelecom_network.client[56] 	avg_time[56] 	0.010646365921
scalar dtelecom_network.client[57] 	hdistance[57] 	1.9048056832428
scalar dtelecom_network.client[57] 	downloads[57] 	11965
scalar dtelecom_network.client[57] 	avg_time[57] 	0.010921966687
scalar dtelecom_network.client[58] 	hdistance[58] 	1.8195357350861
scalar dtelecom_network.client[58] 	downloads[58] 	12019
scalar dtelecom_network.client[58] 	avg_time[58] 	0.013054481605
scalar dtelecom_network.client[59] 	hdistance[59] 	1.7953677569318
scalar dtelecom_network.client[59] 	downloads[59] 	12046
scalar dtelecom_network.client[59] 	avg_time[59] 	0.055488985409
scalar dtelecom_network.client[62] 	hdistance[62] 	2.4322237901552
scalar dtelecom_network.client[62] 	downloads[62] 	12047
scalar dtelecom_network.client[62] 	avg_time[62] 	0.057774741506
scalar dtelecom_network.client[66] 	hdistance[66] 	1.9556983147005
scalar dtelecom_network.client[66] 	downloads[66] 	11986
scalar dtelecom_network.client[66] 	avg_time[66] 	0.089495519691
scalar dtelecom_network.client[67] 	hdistance[67] 	2.0018174308137
scalar dtelecom_network.client[67] 	downloads[67] 	12105
scalar dtelecom_network.client[67] 	avg_time[67] 	0.076851998454
