version 2
run General-61-20160824-04:29:45-9702
attr D ffc0.05
attr F spr
attr R lru
attr a 0.9
attr configname General
attr datetime 20160824-04:29:45
attr experiment General
attr inifile hw5115/scenario_C/omnetp.ini
attr iterationvars "$net=dtelecom, $rep=7, $a=0.9, $F=spr, $D=ffc0.05, $R=lru, $window=60, $variance=0.05, $mytime=600"
attr iterationvars2 "$net=dtelecom, $rep=7, $a=0.9, $F=spr, $D=ffc0.05, $R=lru, $window=60, $variance=0.05, $mytime=600, $repetition=0"
attr measurement "$net=dtelecom, $rep=7, $a=0.9, $F=spr, $D=ffc0.05, $R=lru, $window=60, $variance=0.05, $mytime=600"
attr mytime 600
attr net dtelecom
attr network networks.${net=dtelecom}_network
attr processid 9702
attr rep 7
attr repetition 0
attr replication #0
attr resultdir results
attr runnumber 61
attr seedset 7
attr variance 0.05
attr window 60

scalar . 	a 	0.9
scalar . 	mytime 	600
scalar . 	rep 	7
scalar . 	variance 	0.05
scalar . 	window 	60
scalar dtelecom_network.content_distribution 	repo-0 	4
scalar dtelecom_network.content_distribution 	repo-1 	44
scalar dtelecom_network.content_distribution 	repo-2 	64
scalar dtelecom_network.content_distribution 	repo-3 	8
scalar dtelecom_network.content_distribution 	repo-4 	18
scalar dtelecom_network.content_distribution 	repo-5 	14
scalar dtelecom_network.content_distribution 	repo-6 	45
scalar dtelecom_network.content_distribution 	repo-7 	39
scalar dtelecom_network.content_distribution 	repo-8 	34
scalar dtelecom_network.content_distribution 	repo-9 	41
scalar dtelecom_network.content_distribution 	repo-10 	40
scalar dtelecom_network.content_distribution 	repo-11 	5
scalar dtelecom_network.content_distribution 	repo-12 	27
scalar dtelecom_network.content_distribution 	repo-13 	29
scalar dtelecom_network.content_distribution 	repo-14 	38
scalar dtelecom_network.content_distribution 	repo-15 	19
scalar dtelecom_network.content_distribution 	client-0 	46
scalar dtelecom_network.content_distribution 	client-1 	30
scalar dtelecom_network.content_distribution 	client-2 	8
scalar dtelecom_network.content_distribution 	client-3 	49
scalar dtelecom_network.content_distribution 	client-4 	66
scalar dtelecom_network.content_distribution 	client-5 	58
scalar dtelecom_network.content_distribution 	client-6 	32
scalar dtelecom_network.content_distribution 	client-7 	40
scalar dtelecom_network.content_distribution 	client-8 	42
scalar dtelecom_network.content_distribution 	client-9 	45
scalar dtelecom_network.content_distribution 	client-10 	33
scalar dtelecom_network.content_distribution 	client-11 	28
scalar dtelecom_network.content_distribution 	client-12 	3
scalar dtelecom_network.content_distribution 	client-13 	57
scalar dtelecom_network.content_distribution 	client-14 	50
scalar dtelecom_network.content_distribution 	client-15 	17
scalar dtelecom_network.content_distribution 	client-16 	59
scalar dtelecom_network.content_distribution 	client-17 	48
scalar dtelecom_network.content_distribution 	client-18 	23
scalar dtelecom_network.content_distribution 	client-19 	22
scalar dtelecom_network.content_distribution 	client-20 	67
scalar dtelecom_network.content_distribution 	client-21 	62
scalar dtelecom_network.content_distribution 	client-22 	56
scalar dtelecom_network.content_distribution 	client-23 	55
scalar dtelecom_network.content_distribution 	client-24 	53
scalar dtelecom_network.content_distribution 	client-25 	36
scalar dtelecom_network.content_distribution 	client-26 	51
scalar dtelecom_network.content_distribution 	client-27 	37
scalar dtelecom_network.content_distribution 	client-28 	54
scalar dtelecom_network.content_distribution 	client-29 	4
scalar dtelecom_network.content_distribution 	client-30 	31
scalar dtelecom_network.content_distribution 	client-31 	9
scalar dtelecom_network.content_distribution 	repo-0_card 	6346
scalar dtelecom_network.content_distribution 	repo-0_price 	0
scalar dtelecom_network.content_distribution 	repo-1_card 	6181
scalar dtelecom_network.content_distribution 	repo-1_price 	0
scalar dtelecom_network.content_distribution 	repo-2_card 	6224
scalar dtelecom_network.content_distribution 	repo-2_price 	0
scalar dtelecom_network.content_distribution 	repo-3_card 	6310
scalar dtelecom_network.content_distribution 	repo-3_price 	0
scalar dtelecom_network.content_distribution 	repo-4_card 	6130
scalar dtelecom_network.content_distribution 	repo-4_price 	0
scalar dtelecom_network.content_distribution 	repo-5_card 	6321
scalar dtelecom_network.content_distribution 	repo-5_price 	0
scalar dtelecom_network.content_distribution 	repo-6_card 	6231
scalar dtelecom_network.content_distribution 	repo-6_price 	0
scalar dtelecom_network.content_distribution 	repo-7_card 	6325
scalar dtelecom_network.content_distribution 	repo-7_price 	0
scalar dtelecom_network.content_distribution 	repo-8_card 	6290
scalar dtelecom_network.content_distribution 	repo-8_price 	0
scalar dtelecom_network.content_distribution 	repo-9_card 	6222
scalar dtelecom_network.content_distribution 	repo-9_price 	0
scalar dtelecom_network.content_distribution 	repo-10_card 	6218
scalar dtelecom_network.content_distribution 	repo-10_price 	0
scalar dtelecom_network.content_distribution 	repo-11_card 	6095
scalar dtelecom_network.content_distribution 	repo-11_price 	0
scalar dtelecom_network.content_distribution 	repo-12_card 	6254
scalar dtelecom_network.content_distribution 	repo-12_price 	0
scalar dtelecom_network.content_distribution 	repo-13_card 	6242
scalar dtelecom_network.content_distribution 	repo-13_price 	0
scalar dtelecom_network.content_distribution 	repo-14_card 	6305
scalar dtelecom_network.content_distribution 	repo-14_price 	0
scalar dtelecom_network.content_distribution 	repo-15_card 	6306
scalar dtelecom_network.content_distribution 	repo-15_price 	0
scalar dtelecom_network.statistics 	stabilization_time 	12829.1
scalar dtelecom_network.statistics 	p_hit 	0.26019454029151
scalar dtelecom_network.statistics 	interests 	12800.558823529
scalar dtelecom_network.statistics 	data 	7148.6470588235
scalar dtelecom_network.statistics 	hdistance 	1.7644836570286
scalar dtelecom_network.statistics 	avg_time 	0.023792105518
scalar dtelecom_network.statistics 	downloads 	384324
scalar dtelecom_network.statistics 	total_cost 	0
scalar dtelecom_network.statistics 	total_replicas 	100000
scalar dtelecom_network.statistics 	inner_hit 	0.50018734193025
scalar dtelecom_network.node[0].core_layer 	interests[0] 	0
scalar dtelecom_network.node[0].core_layer 	data[0] 	0
scalar dtelecom_network.node[0].core_layer 	repo_int[0] 	192090
scalar dtelecom_network.node[0].content_store 	p_hit[0] 	-nan
scalar dtelecom_network.node[0].content_store 	hits[0] 	0
scalar dtelecom_network.node[0].content_store 	misses[0] 	0
scalar dtelecom_network.node[0].content_store 	decision_yes[0] 	0
scalar dtelecom_network.node[0].content_store 	decision_no[0] 	0
scalar dtelecom_network.node[0].content_store 	decision_ratio[0] 	0
scalar dtelecom_network.node[1].core_layer 	interests[1] 	178491
scalar dtelecom_network.node[1].core_layer 	data[1] 	166046
scalar dtelecom_network.node[1].content_store 	p_hit[1] 	0.069622558000123
scalar dtelecom_network.node[1].content_store 	hits[1] 	12427
scalar dtelecom_network.node[1].content_store 	misses[1] 	166064
scalar dtelecom_network.node[1].content_store 	decision_yes[1] 	84
scalar dtelecom_network.node[1].content_store 	decision_no[1] 	165962
scalar dtelecom_network.node[1].content_store 	decision_ratio[1] 	0.00050588391168712
scalar dtelecom_network.node[2].core_layer 	interests[2] 	2174
scalar dtelecom_network.node[2].core_layer 	data[2] 	1971
scalar dtelecom_network.node[2].content_store 	p_hit[2] 	0.094296228150874
scalar dtelecom_network.node[2].content_store 	hits[2] 	205
scalar dtelecom_network.node[2].content_store 	misses[2] 	1969
scalar dtelecom_network.node[2].content_store 	decision_yes[2] 	2
scalar dtelecom_network.node[2].content_store 	decision_no[2] 	1969
scalar dtelecom_network.node[2].content_store 	decision_ratio[2] 	0.0010147133434805
scalar dtelecom_network.node[3].core_layer 	interests[3] 	12000
scalar dtelecom_network.node[3].core_layer 	data[3] 	8582
scalar dtelecom_network.node[3].content_store 	p_hit[3] 	0.28491666666667
scalar dtelecom_network.node[3].content_store 	hits[3] 	3419
scalar dtelecom_network.node[3].content_store 	misses[3] 	8581
scalar dtelecom_network.node[3].content_store 	decision_yes[3] 	9
scalar dtelecom_network.node[3].content_store 	decision_no[3] 	8573
scalar dtelecom_network.node[3].content_store 	decision_ratio[3] 	0.0010487065951993
scalar dtelecom_network.node[4].core_layer 	interests[4] 	60172
scalar dtelecom_network.node[4].core_layer 	repo_load[4] 	14008
scalar dtelecom_network.node[4].core_layer 	data[4] 	36886
scalar dtelecom_network.node[4].content_store 	p_hit[4] 	0.15379246161005
scalar dtelecom_network.node[4].content_store 	hits[4] 	9254
scalar dtelecom_network.node[4].content_store 	misses[4] 	50918
scalar dtelecom_network.node[4].content_store 	decision_yes[4] 	43
scalar dtelecom_network.node[4].content_store 	decision_no[4] 	50851
scalar dtelecom_network.node[4].content_store 	decision_ratio[4] 	0.00084489330765906
scalar dtelecom_network.node[5].core_layer 	interests[5] 	17035
scalar dtelecom_network.node[5].core_layer 	repo_load[5] 	11675
scalar dtelecom_network.node[5].core_layer 	data[5] 	0
scalar dtelecom_network.node[5].content_store 	p_hit[5] 	0.3146463164074
scalar dtelecom_network.node[5].content_store 	hits[5] 	5360
scalar dtelecom_network.node[5].content_store 	misses[5] 	11675
scalar dtelecom_network.node[5].content_store 	decision_yes[5] 	30
scalar dtelecom_network.node[5].content_store 	decision_no[5] 	11645
scalar dtelecom_network.node[5].content_store 	decision_ratio[5] 	0.0025695931477516
scalar dtelecom_network.node[6].core_layer 	interests[6] 	0
scalar dtelecom_network.node[6].core_layer 	data[6] 	0
scalar dtelecom_network.node[6].content_store 	p_hit[6] 	-nan
scalar dtelecom_network.node[6].content_store 	hits[6] 	0
scalar dtelecom_network.node[6].content_store 	misses[6] 	0
scalar dtelecom_network.node[6].content_store 	decision_yes[6] 	0
scalar dtelecom_network.node[6].content_store 	decision_no[6] 	0
scalar dtelecom_network.node[6].content_store 	decision_ratio[6] 	0
scalar dtelecom_network.node[7].core_layer 	interests[7] 	0
scalar dtelecom_network.node[7].core_layer 	data[7] 	0
scalar dtelecom_network.node[7].content_store 	p_hit[7] 	-nan
scalar dtelecom_network.node[7].content_store 	hits[7] 	0
scalar dtelecom_network.node[7].content_store 	misses[7] 	0
scalar dtelecom_network.node[7].content_store 	decision_yes[7] 	0
scalar dtelecom_network.node[7].content_store 	decision_no[7] 	0
scalar dtelecom_network.node[7].content_store 	decision_ratio[7] 	0
scalar dtelecom_network.node[8].core_layer 	interests[8] 	29210
scalar dtelecom_network.node[8].core_layer 	repo_load[8] 	12968
scalar dtelecom_network.node[8].core_layer 	data[8] 	9074
scalar dtelecom_network.node[8].content_store 	p_hit[8] 	0.24539541252996
scalar dtelecom_network.node[8].content_store 	hits[8] 	7168
scalar dtelecom_network.node[8].content_store 	misses[8] 	22042
scalar dtelecom_network.node[8].content_store 	decision_yes[8] 	26
scalar dtelecom_network.node[8].content_store 	decision_no[8] 	22016
scalar dtelecom_network.node[8].content_store 	decision_ratio[8] 	0.0011795662825515
scalar dtelecom_network.node[9].core_layer 	interests[9] 	11902
scalar dtelecom_network.node[9].core_layer 	data[9] 	8651
scalar dtelecom_network.node[9].content_store 	p_hit[9] 	0.27314737018988
scalar dtelecom_network.node[9].content_store 	hits[9] 	3251
scalar dtelecom_network.node[9].content_store 	misses[9] 	8651
scalar dtelecom_network.node[9].content_store 	decision_yes[9] 	3
scalar dtelecom_network.node[9].content_store 	decision_no[9] 	8648
scalar dtelecom_network.node[9].content_store 	decision_ratio[9] 	0.00034678071899202
scalar dtelecom_network.node[10].core_layer 	interests[10] 	0
scalar dtelecom_network.node[10].core_layer 	data[10] 	0
scalar dtelecom_network.node[10].content_store 	p_hit[10] 	-nan
scalar dtelecom_network.node[10].content_store 	hits[10] 	0
scalar dtelecom_network.node[10].content_store 	misses[10] 	0
scalar dtelecom_network.node[10].content_store 	decision_yes[10] 	0
scalar dtelecom_network.node[10].content_store 	decision_no[10] 	0
scalar dtelecom_network.node[10].content_store 	decision_ratio[10] 	0
scalar dtelecom_network.node[11].core_layer 	interests[11] 	0
scalar dtelecom_network.node[11].core_layer 	data[11] 	0
scalar dtelecom_network.node[11].content_store 	p_hit[11] 	-nan
scalar dtelecom_network.node[11].content_store 	hits[11] 	0
scalar dtelecom_network.node[11].content_store 	misses[11] 	0
scalar dtelecom_network.node[11].content_store 	decision_yes[11] 	0
scalar dtelecom_network.node[11].content_store 	decision_no[11] 	0
scalar dtelecom_network.node[11].content_store 	decision_ratio[11] 	0
scalar dtelecom_network.node[12].core_layer 	interests[12] 	0
scalar dtelecom_network.node[12].core_layer 	data[12] 	0
scalar dtelecom_network.node[12].content_store 	p_hit[12] 	-nan
scalar dtelecom_network.node[12].content_store 	hits[12] 	0
scalar dtelecom_network.node[12].content_store 	misses[12] 	0
scalar dtelecom_network.node[12].content_store 	decision_yes[12] 	0
scalar dtelecom_network.node[12].content_store 	decision_no[12] 	0
scalar dtelecom_network.node[12].content_store 	decision_ratio[12] 	0
scalar dtelecom_network.node[13].core_layer 	interests[13] 	0
scalar dtelecom_network.node[13].core_layer 	data[13] 	0
scalar dtelecom_network.node[13].content_store 	p_hit[13] 	-nan
scalar dtelecom_network.node[13].content_store 	hits[13] 	0
scalar dtelecom_network.node[13].content_store 	misses[13] 	0
scalar dtelecom_network.node[13].content_store 	decision_yes[13] 	0
scalar dtelecom_network.node[13].content_store 	decision_no[13] 	0
scalar dtelecom_network.node[13].content_store 	decision_ratio[13] 	0
scalar dtelecom_network.node[14].core_layer 	interests[14] 	17126
scalar dtelecom_network.node[14].core_layer 	repo_load[14] 	12101
scalar dtelecom_network.node[14].core_layer 	data[14] 	0
scalar dtelecom_network.node[14].content_store 	p_hit[14] 	0.29341352329791
scalar dtelecom_network.node[14].content_store 	hits[14] 	5025
scalar dtelecom_network.node[14].content_store 	misses[14] 	12101
scalar dtelecom_network.node[14].content_store 	decision_yes[14] 	33
scalar dtelecom_network.node[14].content_store 	decision_no[14] 	12068
scalar dtelecom_network.node[14].content_store 	decision_ratio[14] 	0.0027270473514586
scalar dtelecom_network.node[15].core_layer 	interests[15] 	0
scalar dtelecom_network.node[15].core_layer 	data[15] 	0
scalar dtelecom_network.node[15].content_store 	p_hit[15] 	-nan
scalar dtelecom_network.node[15].content_store 	hits[15] 	0
scalar dtelecom_network.node[15].content_store 	misses[15] 	0
scalar dtelecom_network.node[15].content_store 	decision_yes[15] 	0
scalar dtelecom_network.node[15].content_store 	decision_no[15] 	0
scalar dtelecom_network.node[15].content_store 	decision_ratio[15] 	0
scalar dtelecom_network.node[16].core_layer 	interests[16] 	0
scalar dtelecom_network.node[16].core_layer 	data[16] 	0
scalar dtelecom_network.node[16].content_store 	p_hit[16] 	-nan
scalar dtelecom_network.node[16].content_store 	hits[16] 	0
scalar dtelecom_network.node[16].content_store 	misses[16] 	0
scalar dtelecom_network.node[16].content_store 	decision_yes[16] 	0
scalar dtelecom_network.node[16].content_store 	decision_no[16] 	0
scalar dtelecom_network.node[16].content_store 	decision_ratio[16] 	0
scalar dtelecom_network.node[17].core_layer 	interests[17] 	13684
scalar dtelecom_network.node[17].core_layer 	data[17] 	10257
scalar dtelecom_network.node[17].content_store 	p_hit[17] 	0.25036539023677
scalar dtelecom_network.node[17].content_store 	hits[17] 	3426
scalar dtelecom_network.node[17].content_store 	misses[17] 	10258
scalar dtelecom_network.node[17].content_store 	decision_yes[17] 	7
scalar dtelecom_network.node[17].content_store 	decision_no[17] 	10250
scalar dtelecom_network.node[17].content_store 	decision_ratio[17] 	0.00068246075850639
scalar dtelecom_network.node[18].core_layer 	interests[18] 	16029
scalar dtelecom_network.node[18].core_layer 	repo_load[18] 	11741
scalar dtelecom_network.node[18].core_layer 	data[18] 	0
scalar dtelecom_network.node[18].content_store 	p_hit[18] 	0.267515128829
scalar dtelecom_network.node[18].content_store 	hits[18] 	4288
scalar dtelecom_network.node[18].content_store 	misses[18] 	11741
scalar dtelecom_network.node[18].content_store 	decision_yes[18] 	30
scalar dtelecom_network.node[18].content_store 	decision_no[18] 	11711
scalar dtelecom_network.node[18].content_store 	decision_ratio[18] 	0.0025551486244783
scalar dtelecom_network.node[19].core_layer 	interests[19] 	15967
scalar dtelecom_network.node[19].core_layer 	repo_load[19] 	11933
scalar dtelecom_network.node[19].core_layer 	data[19] 	0
scalar dtelecom_network.node[19].content_store 	p_hit[19] 	0.25264608254525
scalar dtelecom_network.node[19].content_store 	hits[19] 	4034
scalar dtelecom_network.node[19].content_store 	misses[19] 	11933
scalar dtelecom_network.node[19].content_store 	decision_yes[19] 	36
scalar dtelecom_network.node[19].content_store 	decision_no[19] 	11897
scalar dtelecom_network.node[19].content_store 	decision_ratio[19] 	0.0030168440459231
scalar dtelecom_network.node[20].core_layer 	interests[20] 	0
scalar dtelecom_network.node[20].core_layer 	data[20] 	0
scalar dtelecom_network.node[20].content_store 	p_hit[20] 	-nan
scalar dtelecom_network.node[20].content_store 	hits[20] 	0
scalar dtelecom_network.node[20].content_store 	misses[20] 	0
scalar dtelecom_network.node[20].content_store 	decision_yes[20] 	0
scalar dtelecom_network.node[20].content_store 	decision_no[20] 	0
scalar dtelecom_network.node[20].content_store 	decision_ratio[20] 	0
scalar dtelecom_network.node[21].core_layer 	interests[21] 	0
scalar dtelecom_network.node[21].core_layer 	data[21] 	0
scalar dtelecom_network.node[21].content_store 	p_hit[21] 	-nan
scalar dtelecom_network.node[21].content_store 	hits[21] 	0
scalar dtelecom_network.node[21].content_store 	misses[21] 	0
scalar dtelecom_network.node[21].content_store 	decision_yes[21] 	0
scalar dtelecom_network.node[21].content_store 	decision_no[21] 	0
scalar dtelecom_network.node[21].content_store 	decision_ratio[21] 	0
scalar dtelecom_network.node[22].core_layer 	interests[22] 	11922
scalar dtelecom_network.node[22].core_layer 	data[22] 	8486
scalar dtelecom_network.node[22].content_store 	p_hit[22] 	0.28820667673209
scalar dtelecom_network.node[22].content_store 	hits[22] 	3436
scalar dtelecom_network.node[22].content_store 	misses[22] 	8486
scalar dtelecom_network.node[22].content_store 	decision_yes[22] 	6
scalar dtelecom_network.node[22].content_store 	decision_no[22] 	8480
scalar dtelecom_network.node[22].content_store 	decision_ratio[22] 	0.00070704690077775
scalar dtelecom_network.node[23].core_layer 	interests[23] 	21741
scalar dtelecom_network.node[23].core_layer 	data[23] 	18121
scalar dtelecom_network.node[23].content_store 	p_hit[23] 	0.16636769237846
scalar dtelecom_network.node[23].content_store 	hits[23] 	3617
scalar dtelecom_network.node[23].content_store 	misses[23] 	18124
scalar dtelecom_network.node[23].content_store 	decision_yes[23] 	12
scalar dtelecom_network.node[23].content_store 	decision_no[23] 	18109
scalar dtelecom_network.node[23].content_store 	decision_ratio[23] 	0.00066221510954142
scalar dtelecom_network.node[24].core_layer 	interests[24] 	0
scalar dtelecom_network.node[24].core_layer 	data[24] 	0
scalar dtelecom_network.node[24].content_store 	p_hit[24] 	-nan
scalar dtelecom_network.node[24].content_store 	hits[24] 	0
scalar dtelecom_network.node[24].content_store 	misses[24] 	0
scalar dtelecom_network.node[24].content_store 	decision_yes[24] 	0
scalar dtelecom_network.node[24].content_store 	decision_no[24] 	0
scalar dtelecom_network.node[24].content_store 	decision_ratio[24] 	0
scalar dtelecom_network.node[25].core_layer 	interests[25] 	0
scalar dtelecom_network.node[25].core_layer 	data[25] 	0
scalar dtelecom_network.node[25].content_store 	p_hit[25] 	-nan
scalar dtelecom_network.node[25].content_store 	hits[25] 	0
scalar dtelecom_network.node[25].content_store 	misses[25] 	0
scalar dtelecom_network.node[25].content_store 	decision_yes[25] 	0
scalar dtelecom_network.node[25].content_store 	decision_no[25] 	0
scalar dtelecom_network.node[25].content_store 	decision_ratio[25] 	0
scalar dtelecom_network.node[26].core_layer 	interests[26] 	1034
scalar dtelecom_network.node[26].core_layer 	data[26] 	904
scalar dtelecom_network.node[26].content_store 	p_hit[26] 	0.1257253384913
scalar dtelecom_network.node[26].content_store 	hits[26] 	130
scalar dtelecom_network.node[26].content_store 	misses[26] 	904
scalar dtelecom_network.node[26].content_store 	decision_yes[26] 	1
scalar dtelecom_network.node[26].content_store 	decision_no[26] 	903
scalar dtelecom_network.node[26].content_store 	decision_ratio[26] 	0.0011061946902655
scalar dtelecom_network.node[27].core_layer 	interests[27] 	17098
scalar dtelecom_network.node[27].core_layer 	repo_load[27] 	12095
scalar dtelecom_network.node[27].core_layer 	data[27] 	0
scalar dtelecom_network.node[27].content_store 	p_hit[27] 	0.29260732249386
scalar dtelecom_network.node[27].content_store 	hits[27] 	5003
scalar dtelecom_network.node[27].content_store 	misses[27] 	12095
scalar dtelecom_network.node[27].content_store 	decision_yes[27] 	27
scalar dtelecom_network.node[27].content_store 	decision_no[27] 	12068
scalar dtelecom_network.node[27].content_store 	decision_ratio[27] 	0.0022323274080198
scalar dtelecom_network.node[28].core_layer 	interests[28] 	12093
scalar dtelecom_network.node[28].core_layer 	data[28] 	8610
scalar dtelecom_network.node[28].content_store 	p_hit[28] 	0.28801786157281
scalar dtelecom_network.node[28].content_store 	hits[28] 	3483
scalar dtelecom_network.node[28].content_store 	misses[28] 	8610
scalar dtelecom_network.node[28].content_store 	decision_yes[28] 	2
scalar dtelecom_network.node[28].content_store 	decision_no[28] 	8608
scalar dtelecom_network.node[28].content_store 	decision_ratio[28] 	0.00023228803716609
scalar dtelecom_network.node[29].core_layer 	interests[29] 	16821
scalar dtelecom_network.node[29].core_layer 	repo_load[29] 	11848
scalar dtelecom_network.node[29].core_layer 	data[29] 	0
scalar dtelecom_network.node[29].content_store 	p_hit[29] 	0.29564235182213
scalar dtelecom_network.node[29].content_store 	hits[29] 	4973
scalar dtelecom_network.node[29].content_store 	misses[29] 	11848
scalar dtelecom_network.node[29].content_store 	decision_yes[29] 	28
scalar dtelecom_network.node[29].content_store 	decision_no[29] 	11820
scalar dtelecom_network.node[29].content_store 	decision_ratio[29] 	0.0023632680621202
scalar dtelecom_network.node[30].core_layer 	interests[30] 	12025
scalar dtelecom_network.node[30].core_layer 	data[30] 	8703
scalar dtelecom_network.node[30].content_store 	p_hit[30] 	0.2762577962578
scalar dtelecom_network.node[30].content_store 	hits[30] 	3322
scalar dtelecom_network.node[30].content_store 	misses[30] 	8703
scalar dtelecom_network.node[30].content_store 	decision_yes[30] 	9
scalar dtelecom_network.node[30].content_store 	decision_no[30] 	8694
scalar dtelecom_network.node[30].content_store 	decision_ratio[30] 	0.0010341261633919
scalar dtelecom_network.node[31].core_layer 	interests[31] 	12176
scalar dtelecom_network.node[31].core_layer 	data[31] 	8619
scalar dtelecom_network.node[31].content_store 	p_hit[31] 	0.29204993429698
scalar dtelecom_network.node[31].content_store 	hits[31] 	3556
scalar dtelecom_network.node[31].content_store 	misses[31] 	8620
scalar dtelecom_network.node[31].content_store 	decision_yes[31] 	3
scalar dtelecom_network.node[31].content_store 	decision_no[31] 	8616
scalar dtelecom_network.node[31].content_store 	decision_ratio[31] 	0.00034806822137139
scalar dtelecom_network.node[32].core_layer 	interests[32] 	11965
scalar dtelecom_network.node[32].core_layer 	data[32] 	8611
scalar dtelecom_network.node[32].content_store 	p_hit[32] 	0.28023401587965
scalar dtelecom_network.node[32].content_store 	hits[32] 	3353
scalar dtelecom_network.node[32].content_store 	misses[32] 	8612
scalar dtelecom_network.node[32].content_store 	decision_yes[32] 	8
scalar dtelecom_network.node[32].content_store 	decision_no[32] 	8603
scalar dtelecom_network.node[32].content_store 	decision_ratio[32] 	0.0009290442457322
scalar dtelecom_network.node[33].core_layer 	interests[33] 	11978
scalar dtelecom_network.node[33].core_layer 	data[33] 	8570
scalar dtelecom_network.node[33].content_store 	p_hit[33] 	0.28435465019202
scalar dtelecom_network.node[33].content_store 	hits[33] 	3406
scalar dtelecom_network.node[33].content_store 	misses[33] 	8572
scalar dtelecom_network.node[33].content_store 	decision_yes[33] 	7
scalar dtelecom_network.node[33].content_store 	decision_no[33] 	8563
scalar dtelecom_network.node[33].content_store 	decision_ratio[33] 	0.00081680280046674
scalar dtelecom_network.node[34].core_layer 	interests[34] 	15894
scalar dtelecom_network.node[34].core_layer 	repo_load[34] 	11630
scalar dtelecom_network.node[34].core_layer 	data[34] 	0
scalar dtelecom_network.node[34].content_store 	p_hit[34] 	0.26827733736001
scalar dtelecom_network.node[34].content_store 	hits[34] 	4264
scalar dtelecom_network.node[34].content_store 	misses[34] 	11630
scalar dtelecom_network.node[34].content_store 	decision_yes[34] 	20
scalar dtelecom_network.node[34].content_store 	decision_no[34] 	11610
scalar dtelecom_network.node[34].content_store 	decision_ratio[34] 	0.001719690455718
scalar dtelecom_network.node[35].core_layer 	interests[35] 	0
scalar dtelecom_network.node[35].core_layer 	data[35] 	0
scalar dtelecom_network.node[35].content_store 	p_hit[35] 	-nan
scalar dtelecom_network.node[35].content_store 	hits[35] 	0
scalar dtelecom_network.node[35].content_store 	misses[35] 	0
scalar dtelecom_network.node[35].content_store 	decision_yes[35] 	0
scalar dtelecom_network.node[35].content_store 	decision_no[35] 	0
scalar dtelecom_network.node[35].content_store 	decision_ratio[35] 	0
scalar dtelecom_network.node[36].core_layer 	interests[36] 	12060
scalar dtelecom_network.node[36].core_layer 	data[36] 	8664
scalar dtelecom_network.node[36].content_store 	p_hit[36] 	0.281592039801
scalar dtelecom_network.node[36].content_store 	hits[36] 	3396
scalar dtelecom_network.node[36].content_store 	misses[36] 	8664
scalar dtelecom_network.node[36].content_store 	decision_yes[36] 	4
scalar dtelecom_network.node[36].content_store 	decision_no[36] 	8660
scalar dtelecom_network.node[36].content_store 	decision_ratio[36] 	0.00046168051708218
scalar dtelecom_network.node[37].core_layer 	interests[37] 	11922
scalar dtelecom_network.node[37].core_layer 	data[37] 	8573
scalar dtelecom_network.node[37].content_store 	p_hit[37] 	0.28090924341553
scalar dtelecom_network.node[37].content_store 	hits[37] 	3349
scalar dtelecom_network.node[37].content_store 	misses[37] 	8573
scalar dtelecom_network.node[37].content_store 	decision_yes[37] 	7
scalar dtelecom_network.node[37].content_store 	decision_no[37] 	8566
scalar dtelecom_network.node[37].content_store 	decision_ratio[37] 	0.00081651697188849
scalar dtelecom_network.node[38].core_layer 	interests[38] 	16241
scalar dtelecom_network.node[38].core_layer 	repo_load[38] 	11714
scalar dtelecom_network.node[38].core_layer 	data[38] 	0
scalar dtelecom_network.node[38].content_store 	p_hit[38] 	0.27873899390432
scalar dtelecom_network.node[38].content_store 	hits[38] 	4527
scalar dtelecom_network.node[38].content_store 	misses[38] 	11714
scalar dtelecom_network.node[38].content_store 	decision_yes[38] 	29
scalar dtelecom_network.node[38].content_store 	decision_no[38] 	11685
scalar dtelecom_network.node[38].content_store 	decision_ratio[38] 	0.0024756701382961
scalar dtelecom_network.node[39].core_layer 	interests[39] 	16081
scalar dtelecom_network.node[39].core_layer 	repo_load[39] 	11588
scalar dtelecom_network.node[39].core_layer 	data[39] 	0
scalar dtelecom_network.node[39].content_store 	p_hit[39] 	0.27939804738511
scalar dtelecom_network.node[39].content_store 	hits[39] 	4493
scalar dtelecom_network.node[39].content_store 	misses[39] 	11588
scalar dtelecom_network.node[39].content_store 	decision_yes[39] 	32
scalar dtelecom_network.node[39].content_store 	decision_no[39] 	11556
scalar dtelecom_network.node[39].content_store 	decision_ratio[39] 	0.0027614773904039
scalar dtelecom_network.node[40].core_layer 	interests[40] 	28981
scalar dtelecom_network.node[40].core_layer 	repo_load[40] 	12216
scalar dtelecom_network.node[40].core_layer 	data[40] 	9810
scalar dtelecom_network.node[40].content_store 	p_hit[40] 	0.23995031227356
scalar dtelecom_network.node[40].content_store 	hits[40] 	6954
scalar dtelecom_network.node[40].content_store 	misses[40] 	22027
scalar dtelecom_network.node[40].content_store 	decision_yes[40] 	33
scalar dtelecom_network.node[40].content_store 	decision_no[40] 	21993
scalar dtelecom_network.node[40].content_store 	decision_ratio[40] 	0.0014982293652956
scalar dtelecom_network.node[41].core_layer 	interests[41] 	16401
scalar dtelecom_network.node[41].core_layer 	repo_load[41] 	11654
scalar dtelecom_network.node[41].core_layer 	data[41] 	0
scalar dtelecom_network.node[41].content_store 	p_hit[41] 	0.28943357112371
scalar dtelecom_network.node[41].content_store 	hits[41] 	4747
scalar dtelecom_network.node[41].content_store 	misses[41] 	11654
scalar dtelecom_network.node[41].content_store 	decision_yes[41] 	28
scalar dtelecom_network.node[41].content_store 	decision_no[41] 	11626
scalar dtelecom_network.node[41].content_store 	decision_ratio[41] 	0.0024026085464218
scalar dtelecom_network.node[42].core_layer 	interests[42] 	12071
scalar dtelecom_network.node[42].core_layer 	data[42] 	8606
scalar dtelecom_network.node[42].content_store 	p_hit[42] 	0.28705161129981
scalar dtelecom_network.node[42].content_store 	hits[42] 	3465
scalar dtelecom_network.node[42].content_store 	misses[42] 	8606
scalar dtelecom_network.node[42].content_store 	decision_yes[42] 	5
scalar dtelecom_network.node[42].content_store 	decision_no[42] 	8601
scalar dtelecom_network.node[42].content_store 	decision_ratio[42] 	0.00058099000697188
scalar dtelecom_network.node[43].core_layer 	interests[43] 	0
scalar dtelecom_network.node[43].core_layer 	data[43] 	0
scalar dtelecom_network.node[43].content_store 	p_hit[43] 	-nan
scalar dtelecom_network.node[43].content_store 	hits[43] 	0
scalar dtelecom_network.node[43].content_store 	misses[43] 	0
scalar dtelecom_network.node[43].content_store 	decision_yes[43] 	0
scalar dtelecom_network.node[43].content_store 	decision_no[43] 	0
scalar dtelecom_network.node[43].content_store 	decision_ratio[43] 	0
scalar dtelecom_network.node[44].core_layer 	interests[44] 	16027
scalar dtelecom_network.node[44].core_layer 	repo_load[44] 	11676
scalar dtelecom_network.node[44].core_layer 	data[44] 	0
scalar dtelecom_network.node[44].content_store 	p_hit[44] 	0.2714793785487
scalar dtelecom_network.node[44].content_store 	hits[44] 	4351
scalar dtelecom_network.node[44].content_store 	misses[44] 	11676
scalar dtelecom_network.node[44].content_store 	decision_yes[44] 	29
scalar dtelecom_network.node[44].content_store 	decision_no[44] 	11647
scalar dtelecom_network.node[44].content_store 	decision_ratio[44] 	0.0024837273038712
scalar dtelecom_network.node[45].core_layer 	interests[45] 	28579
scalar dtelecom_network.node[45].core_layer 	repo_load[45] 	12046
scalar dtelecom_network.node[45].core_layer 	data[45] 	9150
scalar dtelecom_network.node[45].content_store 	p_hit[45] 	0.25830155008923
scalar dtelecom_network.node[45].content_store 	hits[45] 	7382
scalar dtelecom_network.node[45].content_store 	misses[45] 	21197
scalar dtelecom_network.node[45].content_store 	decision_yes[45] 	31
scalar dtelecom_network.node[45].content_store 	decision_no[45] 	21165
scalar dtelecom_network.node[45].content_store 	decision_ratio[45] 	0.001462540101906
scalar dtelecom_network.node[46].core_layer 	interests[46] 	11935
scalar dtelecom_network.node[46].core_layer 	data[46] 	8467
scalar dtelecom_network.node[46].content_store 	p_hit[46] 	0.29049015500628
scalar dtelecom_network.node[46].content_store 	hits[46] 	3467
scalar dtelecom_network.node[46].content_store 	misses[46] 	8468
scalar dtelecom_network.node[46].content_store 	decision_yes[46] 	5
scalar dtelecom_network.node[46].content_store 	decision_no[46] 	8462
scalar dtelecom_network.node[46].content_store 	decision_ratio[46] 	0.00059052793197118
scalar dtelecom_network.node[47].core_layer 	interests[47] 	0
scalar dtelecom_network.node[47].core_layer 	data[47] 	0
scalar dtelecom_network.node[47].content_store 	p_hit[47] 	-nan
scalar dtelecom_network.node[47].content_store 	hits[47] 	0
scalar dtelecom_network.node[47].content_store 	misses[47] 	0
scalar dtelecom_network.node[47].content_store 	decision_yes[47] 	0
scalar dtelecom_network.node[47].content_store 	decision_no[47] 	0
scalar dtelecom_network.node[47].content_store 	decision_ratio[47] 	0
scalar dtelecom_network.node[48].core_layer 	interests[48] 	12117
scalar dtelecom_network.node[48].core_layer 	data[48] 	8725
scalar dtelecom_network.node[48].content_store 	p_hit[48] 	0.27985474952546
scalar dtelecom_network.node[48].content_store 	hits[48] 	3391
scalar dtelecom_network.node[48].content_store 	misses[48] 	8726
scalar dtelecom_network.node[48].content_store 	decision_yes[48] 	7
scalar dtelecom_network.node[48].content_store 	decision_no[48] 	8718
scalar dtelecom_network.node[48].content_store 	decision_ratio[48] 	0.00080229226361032
scalar dtelecom_network.node[49].core_layer 	interests[49] 	11856
scalar dtelecom_network.node[49].core_layer 	data[49] 	8552
scalar dtelecom_network.node[49].content_store 	p_hit[49] 	0.27884615384615
scalar dtelecom_network.node[49].content_store 	hits[49] 	3306
scalar dtelecom_network.node[49].content_store 	misses[49] 	8550
scalar dtelecom_network.node[49].content_store 	decision_yes[49] 	8
scalar dtelecom_network.node[49].content_store 	decision_no[49] 	8544
scalar dtelecom_network.node[49].content_store 	decision_ratio[49] 	0.0009354536950421
scalar dtelecom_network.node[50].core_layer 	interests[50] 	12091
scalar dtelecom_network.node[50].core_layer 	data[50] 	8677
scalar dtelecom_network.node[50].content_store 	p_hit[50] 	0.2823587792573
scalar dtelecom_network.node[50].content_store 	hits[50] 	3414
scalar dtelecom_network.node[50].content_store 	misses[50] 	8677
scalar dtelecom_network.node[50].content_store 	decision_yes[50] 	6
scalar dtelecom_network.node[50].content_store 	decision_no[50] 	8671
scalar dtelecom_network.node[50].content_store 	decision_ratio[50] 	0.00069148323153164
scalar dtelecom_network.node[51].core_layer 	interests[51] 	11943
scalar dtelecom_network.node[51].core_layer 	data[51] 	8560
scalar dtelecom_network.node[51].content_store 	p_hit[51] 	0.28317843088001
scalar dtelecom_network.node[51].content_store 	hits[51] 	3382
scalar dtelecom_network.node[51].content_store 	misses[51] 	8561
scalar dtelecom_network.node[51].content_store 	decision_yes[51] 	5
scalar dtelecom_network.node[51].content_store 	decision_no[51] 	8555
scalar dtelecom_network.node[51].content_store 	decision_ratio[51] 	0.00058411214953271
scalar dtelecom_network.node[52].core_layer 	interests[52] 	0
scalar dtelecom_network.node[52].core_layer 	data[52] 	0
scalar dtelecom_network.node[52].content_store 	p_hit[52] 	-nan
scalar dtelecom_network.node[52].content_store 	hits[52] 	0
scalar dtelecom_network.node[52].content_store 	misses[52] 	0
scalar dtelecom_network.node[52].content_store 	decision_yes[52] 	0
scalar dtelecom_network.node[52].content_store 	decision_no[52] 	0
scalar dtelecom_network.node[52].content_store 	decision_ratio[52] 	0
scalar dtelecom_network.node[53].core_layer 	interests[53] 	11742
scalar dtelecom_network.node[53].core_layer 	data[53] 	8444
scalar dtelecom_network.node[53].content_store 	p_hit[53] 	0.28087208312042
scalar dtelecom_network.node[53].content_store 	hits[53] 	3298
scalar dtelecom_network.node[53].content_store 	misses[53] 	8444
scalar dtelecom_network.node[53].content_store 	decision_yes[53] 	10
scalar dtelecom_network.node[53].content_store 	decision_no[53] 	8434
scalar dtelecom_network.node[53].content_store 	decision_ratio[53] 	0.0011842728564661
scalar dtelecom_network.node[54].core_layer 	interests[54] 	12178
scalar dtelecom_network.node[54].core_layer 	data[54] 	8810
scalar dtelecom_network.node[54].content_store 	p_hit[54] 	0.2764821809821
scalar dtelecom_network.node[54].content_store 	hits[54] 	3367
scalar dtelecom_network.node[54].content_store 	misses[54] 	8811
scalar dtelecom_network.node[54].content_store 	decision_yes[54] 	5
scalar dtelecom_network.node[54].content_store 	decision_no[54] 	8805
scalar dtelecom_network.node[54].content_store 	decision_ratio[54] 	0.00056753688989784
scalar dtelecom_network.node[55].core_layer 	interests[55] 	12025
scalar dtelecom_network.node[55].core_layer 	data[55] 	8587
scalar dtelecom_network.node[55].content_store 	p_hit[55] 	0.28582120582121
scalar dtelecom_network.node[55].content_store 	hits[55] 	3437
scalar dtelecom_network.node[55].content_store 	misses[55] 	8588
scalar dtelecom_network.node[55].content_store 	decision_yes[55] 	6
scalar dtelecom_network.node[55].content_store 	decision_no[55] 	8581
scalar dtelecom_network.node[55].content_store 	decision_ratio[55] 	0.00069873063933853
scalar dtelecom_network.node[56].core_layer 	interests[56] 	12003
scalar dtelecom_network.node[56].core_layer 	data[56] 	8554
scalar dtelecom_network.node[56].content_store 	p_hit[56] 	0.28734483045905
scalar dtelecom_network.node[56].content_store 	hits[56] 	3449
scalar dtelecom_network.node[56].content_store 	misses[56] 	8554
scalar dtelecom_network.node[56].content_store 	decision_yes[56] 	7
scalar dtelecom_network.node[56].content_store 	decision_no[56] 	8547
scalar dtelecom_network.node[56].content_store 	decision_ratio[56] 	0.00081833060556465
scalar dtelecom_network.node[57].core_layer 	interests[57] 	12032
scalar dtelecom_network.node[57].core_layer 	data[57] 	8660
scalar dtelecom_network.node[57].content_store 	p_hit[57] 	0.28025265957447
scalar dtelecom_network.node[57].content_store 	hits[57] 	3372
scalar dtelecom_network.node[57].content_store 	misses[57] 	8660
scalar dtelecom_network.node[57].content_store 	decision_yes[57] 	5
scalar dtelecom_network.node[57].content_store 	decision_no[57] 	8655
scalar dtelecom_network.node[57].content_store 	decision_ratio[57] 	0.00057736720554273
scalar dtelecom_network.node[58].core_layer 	interests[58] 	11856
scalar dtelecom_network.node[58].core_layer 	data[58] 	8517
scalar dtelecom_network.node[58].content_store 	p_hit[58] 	0.28171390013495
scalar dtelecom_network.node[58].content_store 	hits[58] 	3340
scalar dtelecom_network.node[58].content_store 	misses[58] 	8516
scalar dtelecom_network.node[58].content_store 	decision_yes[58] 	4
scalar dtelecom_network.node[58].content_store 	decision_no[58] 	8513
scalar dtelecom_network.node[58].content_store 	decision_ratio[58] 	0.00046964893741928
scalar dtelecom_network.node[59].core_layer 	interests[59] 	12017
scalar dtelecom_network.node[59].core_layer 	data[59] 	8571
scalar dtelecom_network.node[59].content_store 	p_hit[59] 	0.28659399184489
scalar dtelecom_network.node[59].content_store 	hits[59] 	3444
scalar dtelecom_network.node[59].content_store 	misses[59] 	8573
scalar dtelecom_network.node[59].content_store 	decision_yes[59] 	9
scalar dtelecom_network.node[59].content_store 	decision_no[59] 	8562
scalar dtelecom_network.node[59].content_store 	decision_ratio[59] 	0.0010500525026251
scalar dtelecom_network.node[60].core_layer 	interests[60] 	0
scalar dtelecom_network.node[60].core_layer 	data[60] 	0
scalar dtelecom_network.node[60].content_store 	p_hit[60] 	-nan
scalar dtelecom_network.node[60].content_store 	hits[60] 	0
scalar dtelecom_network.node[60].content_store 	misses[60] 	0
scalar dtelecom_network.node[60].content_store 	decision_yes[60] 	0
scalar dtelecom_network.node[60].content_store 	decision_no[60] 	0
scalar dtelecom_network.node[60].content_store 	decision_ratio[60] 	0
scalar dtelecom_network.node[61].core_layer 	interests[61] 	0
scalar dtelecom_network.node[61].core_layer 	data[61] 	0
scalar dtelecom_network.node[61].content_store 	p_hit[61] 	-nan
scalar dtelecom_network.node[61].content_store 	hits[61] 	0
scalar dtelecom_network.node[61].content_store 	misses[61] 	0
scalar dtelecom_network.node[61].content_store 	decision_yes[61] 	0
scalar dtelecom_network.node[61].content_store 	decision_no[61] 	0
scalar dtelecom_network.node[61].content_store 	decision_ratio[61] 	0
scalar dtelecom_network.node[62].core_layer 	interests[62] 	12062
scalar dtelecom_network.node[62].core_layer 	data[62] 	8687
scalar dtelecom_network.node[62].content_store 	p_hit[62] 	0.27980434422152
scalar dtelecom_network.node[62].content_store 	hits[62] 	3375
scalar dtelecom_network.node[62].content_store 	misses[62] 	8687
scalar dtelecom_network.node[62].content_store 	decision_yes[62] 	5
scalar dtelecom_network.node[62].content_store 	decision_no[62] 	8682
scalar dtelecom_network.node[62].content_store 	decision_ratio[62] 	0.00057557269483136
scalar dtelecom_network.node[63].core_layer 	interests[63] 	0
scalar dtelecom_network.node[63].core_layer 	data[63] 	0
scalar dtelecom_network.node[63].content_store 	p_hit[63] 	-nan
scalar dtelecom_network.node[63].content_store 	hits[63] 	0
scalar dtelecom_network.node[63].content_store 	misses[63] 	0
scalar dtelecom_network.node[63].content_store 	decision_yes[63] 	0
scalar dtelecom_network.node[63].content_store 	decision_no[63] 	0
scalar dtelecom_network.node[63].content_store 	decision_ratio[63] 	0
scalar dtelecom_network.node[64].core_layer 	interests[64] 	13535
scalar dtelecom_network.node[64].core_layer 	repo_load[64] 	11197
scalar dtelecom_network.node[64].core_layer 	data[64] 	0
scalar dtelecom_network.node[64].content_store 	p_hit[64] 	0.17273734761729
scalar dtelecom_network.node[64].content_store 	hits[64] 	2338
scalar dtelecom_network.node[64].content_store 	misses[64] 	11197
scalar dtelecom_network.node[64].content_store 	decision_yes[64] 	30
scalar dtelecom_network.node[64].content_store 	decision_no[64] 	11167
scalar dtelecom_network.node[64].content_store 	decision_ratio[64] 	0.0026792890952934
scalar dtelecom_network.node[65].core_layer 	interests[65] 	0
scalar dtelecom_network.node[65].core_layer 	data[65] 	0
scalar dtelecom_network.node[65].content_store 	p_hit[65] 	-nan
scalar dtelecom_network.node[65].content_store 	hits[65] 	0
scalar dtelecom_network.node[65].content_store 	misses[65] 	0
scalar dtelecom_network.node[65].content_store 	decision_yes[65] 	0
scalar dtelecom_network.node[65].content_store 	decision_no[65] 	0
scalar dtelecom_network.node[65].content_store 	decision_ratio[65] 	0
scalar dtelecom_network.node[66].core_layer 	interests[66] 	12058
scalar dtelecom_network.node[66].core_layer 	data[66] 	8673
scalar dtelecom_network.node[66].content_store 	p_hit[66] 	0.2806435561453
scalar dtelecom_network.node[66].content_store 	hits[66] 	3384
scalar dtelecom_network.node[66].content_store 	misses[66] 	8674
scalar dtelecom_network.node[66].content_store 	decision_yes[66] 	8
scalar dtelecom_network.node[66].content_store 	decision_no[66] 	8665
scalar dtelecom_network.node[66].content_store 	decision_ratio[66] 	0.00092240285944886
scalar dtelecom_network.node[67].core_layer 	interests[67] 	12088
scalar dtelecom_network.node[67].core_layer 	data[67] 	8730
scalar dtelecom_network.node[67].content_store 	p_hit[67] 	0.27779616148246
scalar dtelecom_network.node[67].content_store 	hits[67] 	3358
scalar dtelecom_network.node[67].content_store 	misses[67] 	8730
scalar dtelecom_network.node[67].content_store 	decision_yes[67] 	8
scalar dtelecom_network.node[67].content_store 	decision_no[67] 	8722
scalar dtelecom_network.node[67].content_store 	decision_ratio[67] 	0.0009163802978236
scalar dtelecom_network.client[3] 	hdistance[3] 	1.2992250645779
scalar dtelecom_network.client[3] 	downloads[3] 	12001
scalar dtelecom_network.client[3] 	avg_time[3] 	0.01433386619
scalar dtelecom_network.client[4] 	hdistance[4] 	1.2840141796084
scalar dtelecom_network.client[4] 	downloads[4] 	11848
scalar dtelecom_network.client[4] 	avg_time[4] 	0.046347163825
scalar dtelecom_network.client[8] 	hdistance[8] 	1.7973297951737
scalar dtelecom_network.client[8] 	downloads[8] 	12059
scalar dtelecom_network.client[8] 	avg_time[8] 	0.017478225958
scalar dtelecom_network.client[9] 	hdistance[9] 	1.7640732649975
scalar dtelecom_network.client[9] 	downloads[9] 	11902
scalar dtelecom_network.client[9] 	avg_time[9] 	0.01749847787
scalar dtelecom_network.client[17] 	hdistance[17] 	1.6888943772125
scalar dtelecom_network.client[17] 	downloads[17] 	12147
scalar dtelecom_network.client[17] 	avg_time[17] 	0.014706818753
scalar dtelecom_network.client[22] 	hdistance[22] 	1.7778057372924
scalar dtelecom_network.client[22] 	downloads[22] 	11922
scalar dtelecom_network.client[22] 	avg_time[22] 	0.016302567379
scalar dtelecom_network.client[23] 	hdistance[23] 	1.6039678553491
scalar dtelecom_network.client[23] 	downloads[23] 	11946
scalar dtelecom_network.client[23] 	avg_time[23] 	0.015347931356
scalar dtelecom_network.client[28] 	hdistance[28] 	1.7976515339453
scalar dtelecom_network.client[28] 	downloads[28] 	12093
scalar dtelecom_network.client[28] 	avg_time[28] 	0.016196732606
scalar dtelecom_network.client[30] 	hdistance[30] 	1.8119750519751
scalar dtelecom_network.client[30] 	downloads[30] 	12025
scalar dtelecom_network.client[30] 	avg_time[30] 	0.016251311867
scalar dtelecom_network.client[31] 	hdistance[31] 	1.775112936345
scalar dtelecom_network.client[31] 	downloads[31] 	12175
scalar dtelecom_network.client[31] 	avg_time[31] 	0.016973732514
scalar dtelecom_network.client[32] 	hdistance[32] 	1.8022400534938
scalar dtelecom_network.client[32] 	downloads[32] 	11964
scalar dtelecom_network.client[32] 	avg_time[32] 	0.014214104305
scalar dtelecom_network.client[33] 	hdistance[33] 	1.7160153640615
scalar dtelecom_network.client[33] 	downloads[33] 	11976
scalar dtelecom_network.client[33] 	avg_time[33] 	0.015664903801
scalar dtelecom_network.client[36] 	hdistance[36] 	1.7889718076285
scalar dtelecom_network.client[36] 	downloads[36] 	12060
scalar dtelecom_network.client[36] 	avg_time[36] 	0.016498893297
scalar dtelecom_network.client[37] 	hdistance[37] 	1.8007884583124
scalar dtelecom_network.client[37] 	downloads[37] 	11922
scalar dtelecom_network.client[37] 	avg_time[37] 	0.015992618883
scalar dtelecom_network.client[40] 	hdistance[40] 	1.7827727645611
scalar dtelecom_network.client[40] 	downloads[40] 	12190
scalar dtelecom_network.client[40] 	avg_time[40] 	0.019055945796
scalar dtelecom_network.client[42] 	hdistance[42] 	1.7432689917985
scalar dtelecom_network.client[42] 	downloads[42] 	12071
scalar dtelecom_network.client[42] 	avg_time[42] 	0.016606814605
scalar dtelecom_network.client[45] 	hdistance[45] 	1.8202079002079
scalar dtelecom_network.client[45] 	downloads[45] 	12025
scalar dtelecom_network.client[45] 	avg_time[45] 	0.017081537923
scalar dtelecom_network.client[46] 	hdistance[46] 	1.7430869783811
scalar dtelecom_network.client[46] 	downloads[46] 	11934
scalar dtelecom_network.client[46] 	avg_time[46] 	0.018091447141
scalar dtelecom_network.client[48] 	hdistance[48] 	1.8038956751403
scalar dtelecom_network.client[48] 	downloads[48] 	12116
scalar dtelecom_network.client[48] 	avg_time[48] 	0.017112615953
scalar dtelecom_network.client[49] 	hdistance[49] 	1.8058694552201
scalar dtelecom_network.client[49] 	downloads[49] 	11858
scalar dtelecom_network.client[49] 	avg_time[49] 	0.015771976756
scalar dtelecom_network.client[50] 	hdistance[50] 	1.7881895624845
scalar dtelecom_network.client[50] 	downloads[50] 	12091
scalar dtelecom_network.client[50] 	avg_time[50] 	0.014798937555
scalar dtelecom_network.client[51] 	hdistance[51] 	1.7413331100318
scalar dtelecom_network.client[51] 	downloads[51] 	11942
scalar dtelecom_network.client[51] 	avg_time[51] 	0.01642113863
scalar dtelecom_network.client[53] 	hdistance[53] 	1.8019076818259
scalar dtelecom_network.client[53] 	downloads[53] 	11742
scalar dtelecom_network.client[53] 	avg_time[53] 	0.01530487379
scalar dtelecom_network.client[54] 	hdistance[54] 	1.8085735402809
scalar dtelecom_network.client[54] 	downloads[54] 	12177
scalar dtelecom_network.client[54] 	avg_time[54] 	0.016894821571
scalar dtelecom_network.client[55] 	hdistance[55] 	1.7483366600133
scalar dtelecom_network.client[55] 	downloads[55] 	12024
scalar dtelecom_network.client[55] 	avg_time[55] 	0.019673709278
scalar dtelecom_network.client[56] 	hdistance[56] 	1.7813879863368
scalar dtelecom_network.client[56] 	downloads[56] 	12003
scalar dtelecom_network.client[56] 	avg_time[56] 	0.015758424378
scalar dtelecom_network.client[57] 	hdistance[57] 	1.8021941489362
scalar dtelecom_network.client[57] 	downloads[57] 	12032
scalar dtelecom_network.client[57] 	avg_time[57] 	0.014767017825
scalar dtelecom_network.client[58] 	hdistance[58] 	1.7556717550814
scalar dtelecom_network.client[58] 	downloads[58] 	11857
scalar dtelecom_network.client[58] 	avg_time[58] 	0.016890300553
scalar dtelecom_network.client[59] 	hdistance[59] 	1.789013732834
scalar dtelecom_network.client[59] 	downloads[59] 	12015
scalar dtelecom_network.client[59] 	avg_time[59] 	0.057240729677
scalar dtelecom_network.client[62] 	hdistance[62] 	2.2877632233461
scalar dtelecom_network.client[62] 	downloads[62] 	12062
scalar dtelecom_network.client[62] 	avg_time[62] 	0.061735503338
scalar dtelecom_network.client[66] 	hdistance[66] 	1.8526167371651
scalar dtelecom_network.client[66] 	downloads[66] 	12057
scalar dtelecom_network.client[66] 	avg_time[66] 	0.084135297693
scalar dtelecom_network.client[67] 	hdistance[67] 	1.8993216412972
scalar dtelecom_network.client[67] 	downloads[67] 	12088
scalar dtelecom_network.client[67] 	avg_time[67] 	0.070198935532
