version 2
run General-34-20160824-00:29:48-9702
attr D ffc0.05
attr F spr
attr R lru
attr a 0.9
attr configname General
attr datetime 20160824-00:29:48
attr experiment General
attr inifile hw5115/scenario_C/omnetp.ini
attr iterationvars "$net=dtelecom, $rep=4, $a=0.9, $F=spr, $D=ffc0.05, $R=lru, $window=60, $variance=0.05, $mytime=600"
attr iterationvars2 "$net=dtelecom, $rep=4, $a=0.9, $F=spr, $D=ffc0.05, $R=lru, $window=60, $variance=0.05, $mytime=600, $repetition=0"
attr measurement "$net=dtelecom, $rep=4, $a=0.9, $F=spr, $D=ffc0.05, $R=lru, $window=60, $variance=0.05, $mytime=600"
attr mytime 600
attr net dtelecom
attr network networks.${net=dtelecom}_network
attr processid 9702
attr rep 4
attr repetition 0
attr replication #0
attr resultdir results
attr runnumber 34
attr seedset 4
attr variance 0.05
attr window 60

scalar . 	a 	0.9
scalar . 	mytime 	600
scalar . 	rep 	4
scalar . 	variance 	0.05
scalar . 	window 	60
scalar dtelecom_network.content_distribution 	repo-0 	48
scalar dtelecom_network.content_distribution 	repo-1 	16
scalar dtelecom_network.content_distribution 	repo-2 	25
scalar dtelecom_network.content_distribution 	repo-3 	58
scalar dtelecom_network.content_distribution 	repo-4 	26
scalar dtelecom_network.content_distribution 	repo-5 	66
scalar dtelecom_network.content_distribution 	repo-6 	46
scalar dtelecom_network.content_distribution 	repo-7 	54
scalar dtelecom_network.content_distribution 	repo-8 	52
scalar dtelecom_network.content_distribution 	repo-9 	2
scalar dtelecom_network.content_distribution 	repo-10 	32
scalar dtelecom_network.content_distribution 	repo-11 	19
scalar dtelecom_network.content_distribution 	repo-12 	21
scalar dtelecom_network.content_distribution 	repo-13 	11
scalar dtelecom_network.content_distribution 	repo-14 	1
scalar dtelecom_network.content_distribution 	repo-15 	18
scalar dtelecom_network.content_distribution 	client-0 	46
scalar dtelecom_network.content_distribution 	client-1 	30
scalar dtelecom_network.content_distribution 	client-2 	8
scalar dtelecom_network.content_distribution 	client-3 	49
scalar dtelecom_network.content_distribution 	client-4 	66
scalar dtelecom_network.content_distribution 	client-5 	58
scalar dtelecom_network.content_distribution 	client-6 	32
scalar dtelecom_network.content_distribution 	client-7 	40
scalar dtelecom_network.content_distribution 	client-8 	42
scalar dtelecom_network.content_distribution 	client-9 	45
scalar dtelecom_network.content_distribution 	client-10 	33
scalar dtelecom_network.content_distribution 	client-11 	28
scalar dtelecom_network.content_distribution 	client-12 	3
scalar dtelecom_network.content_distribution 	client-13 	57
scalar dtelecom_network.content_distribution 	client-14 	50
scalar dtelecom_network.content_distribution 	client-15 	17
scalar dtelecom_network.content_distribution 	client-16 	59
scalar dtelecom_network.content_distribution 	client-17 	48
scalar dtelecom_network.content_distribution 	client-18 	23
scalar dtelecom_network.content_distribution 	client-19 	22
scalar dtelecom_network.content_distribution 	client-20 	67
scalar dtelecom_network.content_distribution 	client-21 	62
scalar dtelecom_network.content_distribution 	client-22 	56
scalar dtelecom_network.content_distribution 	client-23 	55
scalar dtelecom_network.content_distribution 	client-24 	53
scalar dtelecom_network.content_distribution 	client-25 	36
scalar dtelecom_network.content_distribution 	client-26 	51
scalar dtelecom_network.content_distribution 	client-27 	37
scalar dtelecom_network.content_distribution 	client-28 	54
scalar dtelecom_network.content_distribution 	client-29 	4
scalar dtelecom_network.content_distribution 	client-30 	31
scalar dtelecom_network.content_distribution 	client-31 	9
scalar dtelecom_network.content_distribution 	repo-0_card 	6113
scalar dtelecom_network.content_distribution 	repo-0_price 	0
scalar dtelecom_network.content_distribution 	repo-1_card 	6293
scalar dtelecom_network.content_distribution 	repo-1_price 	0
scalar dtelecom_network.content_distribution 	repo-2_card 	6315
scalar dtelecom_network.content_distribution 	repo-2_price 	0
scalar dtelecom_network.content_distribution 	repo-3_card 	6168
scalar dtelecom_network.content_distribution 	repo-3_price 	0
scalar dtelecom_network.content_distribution 	repo-4_card 	6306
scalar dtelecom_network.content_distribution 	repo-4_price 	0
scalar dtelecom_network.content_distribution 	repo-5_card 	6220
scalar dtelecom_network.content_distribution 	repo-5_price 	0
scalar dtelecom_network.content_distribution 	repo-6_card 	6389
scalar dtelecom_network.content_distribution 	repo-6_price 	0
scalar dtelecom_network.content_distribution 	repo-7_card 	6228
scalar dtelecom_network.content_distribution 	repo-7_price 	0
scalar dtelecom_network.content_distribution 	repo-8_card 	6293
scalar dtelecom_network.content_distribution 	repo-8_price 	0
scalar dtelecom_network.content_distribution 	repo-9_card 	6212
scalar dtelecom_network.content_distribution 	repo-9_price 	0
scalar dtelecom_network.content_distribution 	repo-10_card 	6329
scalar dtelecom_network.content_distribution 	repo-10_price 	0
scalar dtelecom_network.content_distribution 	repo-11_card 	6232
scalar dtelecom_network.content_distribution 	repo-11_price 	0
scalar dtelecom_network.content_distribution 	repo-12_card 	6164
scalar dtelecom_network.content_distribution 	repo-12_price 	0
scalar dtelecom_network.content_distribution 	repo-13_card 	6137
scalar dtelecom_network.content_distribution 	repo-13_price 	0
scalar dtelecom_network.content_distribution 	repo-14_card 	6293
scalar dtelecom_network.content_distribution 	repo-14_price 	0
scalar dtelecom_network.content_distribution 	repo-15_card 	6308
scalar dtelecom_network.content_distribution 	repo-15_price 	0
scalar dtelecom_network.statistics 	stabilization_time 	31926.9
scalar dtelecom_network.statistics 	p_hit 	0.26549482326411
scalar dtelecom_network.statistics 	interests 	13063.485294118
scalar dtelecom_network.statistics 	data 	7417.0882352941
scalar dtelecom_network.statistics 	hdistance 	1.824959802123
scalar dtelecom_network.statistics 	avg_time 	0.022253349336
scalar dtelecom_network.statistics 	downloads 	383953
scalar dtelecom_network.statistics 	total_cost 	0
scalar dtelecom_network.statistics 	total_replicas 	100000
scalar dtelecom_network.statistics 	inner_hit 	0.48915882933588
scalar dtelecom_network.node[0].core_layer 	interests[0] 	0
scalar dtelecom_network.node[0].core_layer 	data[0] 	0
scalar dtelecom_network.node[0].core_layer 	repo_int[0] 	196139
scalar dtelecom_network.node[0].content_store 	p_hit[0] 	-nan
scalar dtelecom_network.node[0].content_store 	hits[0] 	0
scalar dtelecom_network.node[0].content_store 	misses[0] 	0
scalar dtelecom_network.node[0].content_store 	decision_yes[0] 	0
scalar dtelecom_network.node[0].content_store 	decision_no[0] 	0
scalar dtelecom_network.node[0].content_store 	decision_ratio[0] 	0
scalar dtelecom_network.node[1].core_layer 	interests[1] 	212499
scalar dtelecom_network.node[1].core_layer 	repo_load[1] 	16040
scalar dtelecom_network.node[1].core_layer 	data[1] 	183733
scalar dtelecom_network.node[1].content_store 	p_hit[1] 	0.0596238099944
scalar dtelecom_network.node[1].content_store 	hits[1] 	12670
scalar dtelecom_network.node[1].content_store 	misses[1] 	199829
scalar dtelecom_network.node[1].content_store 	decision_yes[1] 	113
scalar dtelecom_network.node[1].content_store 	decision_no[1] 	199660
scalar dtelecom_network.node[1].content_store 	decision_ratio[1] 	0.00056564200367417
scalar dtelecom_network.node[2].core_layer 	interests[2] 	19533
scalar dtelecom_network.node[2].core_layer 	repo_load[2] 	11558
scalar dtelecom_network.node[2].core_layer 	data[2] 	3150
scalar dtelecom_network.node[2].content_store 	p_hit[2] 	0.2470178671991
scalar dtelecom_network.node[2].content_store 	hits[2] 	4825
scalar dtelecom_network.node[2].content_store 	misses[2] 	14708
scalar dtelecom_network.node[2].content_store 	decision_yes[2] 	26
scalar dtelecom_network.node[2].content_store 	decision_no[2] 	14682
scalar dtelecom_network.node[2].content_store 	decision_ratio[2] 	0.001767745444656
scalar dtelecom_network.node[3].core_layer 	interests[3] 	12098
scalar dtelecom_network.node[3].core_layer 	data[3] 	8670
scalar dtelecom_network.node[3].content_store 	p_hit[3] 	0.28335262026781
scalar dtelecom_network.node[3].content_store 	hits[3] 	3428
scalar dtelecom_network.node[3].content_store 	misses[3] 	8670
scalar dtelecom_network.node[3].content_store 	decision_yes[3] 	2
scalar dtelecom_network.node[3].content_store 	decision_no[3] 	8668
scalar dtelecom_network.node[3].content_store 	decision_ratio[3] 	0.00023068050749712
scalar dtelecom_network.node[4].core_layer 	interests[4] 	43620
scalar dtelecom_network.node[4].core_layer 	data[4] 	36856
scalar dtelecom_network.node[4].content_store 	p_hit[4] 	0.15486015589179
scalar dtelecom_network.node[4].content_store 	hits[4] 	6755
scalar dtelecom_network.node[4].content_store 	misses[4] 	36865
scalar dtelecom_network.node[4].content_store 	decision_yes[4] 	35
scalar dtelecom_network.node[4].content_store 	decision_no[4] 	36821
scalar dtelecom_network.node[4].content_store 	decision_ratio[4] 	0.00094964184935967
scalar dtelecom_network.node[5].core_layer 	interests[5] 	0
scalar dtelecom_network.node[5].core_layer 	data[5] 	0
scalar dtelecom_network.node[5].content_store 	p_hit[5] 	-nan
scalar dtelecom_network.node[5].content_store 	hits[5] 	0
scalar dtelecom_network.node[5].content_store 	misses[5] 	0
scalar dtelecom_network.node[5].content_store 	decision_yes[5] 	0
scalar dtelecom_network.node[5].content_store 	decision_no[5] 	0
scalar dtelecom_network.node[5].content_store 	decision_ratio[5] 	0
scalar dtelecom_network.node[6].core_layer 	interests[6] 	0
scalar dtelecom_network.node[6].core_layer 	data[6] 	0
scalar dtelecom_network.node[6].content_store 	p_hit[6] 	-nan
scalar dtelecom_network.node[6].content_store 	hits[6] 	0
scalar dtelecom_network.node[6].content_store 	misses[6] 	0
scalar dtelecom_network.node[6].content_store 	decision_yes[6] 	0
scalar dtelecom_network.node[6].content_store 	decision_no[6] 	0
scalar dtelecom_network.node[6].content_store 	decision_ratio[6] 	0
scalar dtelecom_network.node[7].core_layer 	interests[7] 	0
scalar dtelecom_network.node[7].core_layer 	data[7] 	0
scalar dtelecom_network.node[7].content_store 	p_hit[7] 	-nan
scalar dtelecom_network.node[7].content_store 	hits[7] 	0
scalar dtelecom_network.node[7].content_store 	misses[7] 	0
scalar dtelecom_network.node[7].content_store 	decision_yes[7] 	0
scalar dtelecom_network.node[7].content_store 	decision_no[7] 	0
scalar dtelecom_network.node[7].content_store 	decision_ratio[7] 	0
scalar dtelecom_network.node[8].core_layer 	interests[8] 	12151
scalar dtelecom_network.node[8].core_layer 	data[8] 	8722
scalar dtelecom_network.node[8].content_store 	p_hit[8] 	0.28219899596741
scalar dtelecom_network.node[8].content_store 	hits[8] 	3429
scalar dtelecom_network.node[8].content_store 	misses[8] 	8722
scalar dtelecom_network.node[8].content_store 	decision_yes[8] 	6
scalar dtelecom_network.node[8].content_store 	decision_no[8] 	8716
scalar dtelecom_network.node[8].content_store 	decision_ratio[8] 	0.00068791561568448
scalar dtelecom_network.node[9].core_layer 	interests[9] 	12601
scalar dtelecom_network.node[9].core_layer 	data[9] 	9149
scalar dtelecom_network.node[9].content_store 	p_hit[9] 	0.27394651218157
scalar dtelecom_network.node[9].content_store 	hits[9] 	3452
scalar dtelecom_network.node[9].content_store 	misses[9] 	9149
scalar dtelecom_network.node[9].content_store 	decision_yes[9] 	8
scalar dtelecom_network.node[9].content_store 	decision_no[9] 	9141
scalar dtelecom_network.node[9].content_store 	decision_ratio[9] 	0.00087441250409881
scalar dtelecom_network.node[10].core_layer 	interests[10] 	0
scalar dtelecom_network.node[10].core_layer 	data[10] 	0
scalar dtelecom_network.node[10].content_store 	p_hit[10] 	-nan
scalar dtelecom_network.node[10].content_store 	hits[10] 	0
scalar dtelecom_network.node[10].content_store 	misses[10] 	0
scalar dtelecom_network.node[10].content_store 	decision_yes[10] 	0
scalar dtelecom_network.node[10].content_store 	decision_no[10] 	0
scalar dtelecom_network.node[10].content_store 	decision_ratio[10] 	0
scalar dtelecom_network.node[11].core_layer 	interests[11] 	15798
scalar dtelecom_network.node[11].core_layer 	repo_load[11] 	10996
scalar dtelecom_network.node[11].core_layer 	data[11] 	0
scalar dtelecom_network.node[11].content_store 	p_hit[11] 	0.30396252690214
scalar dtelecom_network.node[11].content_store 	hits[11] 	4802
scalar dtelecom_network.node[11].content_store 	misses[11] 	10996
scalar dtelecom_network.node[11].content_store 	decision_yes[11] 	21
scalar dtelecom_network.node[11].content_store 	decision_no[11] 	10975
scalar dtelecom_network.node[11].content_store 	decision_ratio[11] 	0.0019097853765005
scalar dtelecom_network.node[12].core_layer 	interests[12] 	0
scalar dtelecom_network.node[12].core_layer 	data[12] 	0
scalar dtelecom_network.node[12].content_store 	p_hit[12] 	-nan
scalar dtelecom_network.node[12].content_store 	hits[12] 	0
scalar dtelecom_network.node[12].content_store 	misses[12] 	0
scalar dtelecom_network.node[12].content_store 	decision_yes[12] 	0
scalar dtelecom_network.node[12].content_store 	decision_no[12] 	0
scalar dtelecom_network.node[12].content_store 	decision_ratio[12] 	0
scalar dtelecom_network.node[13].core_layer 	interests[13] 	0
scalar dtelecom_network.node[13].core_layer 	data[13] 	0
scalar dtelecom_network.node[13].content_store 	p_hit[13] 	-nan
scalar dtelecom_network.node[13].content_store 	hits[13] 	0
scalar dtelecom_network.node[13].content_store 	misses[13] 	0
scalar dtelecom_network.node[13].content_store 	decision_yes[13] 	0
scalar dtelecom_network.node[13].content_store 	decision_no[13] 	0
scalar dtelecom_network.node[13].content_store 	decision_ratio[13] 	0
scalar dtelecom_network.node[14].core_layer 	interests[14] 	0
scalar dtelecom_network.node[14].core_layer 	data[14] 	0
scalar dtelecom_network.node[14].content_store 	p_hit[14] 	-nan
scalar dtelecom_network.node[14].content_store 	hits[14] 	0
scalar dtelecom_network.node[14].content_store 	misses[14] 	0
scalar dtelecom_network.node[14].content_store 	decision_yes[14] 	0
scalar dtelecom_network.node[14].content_store 	decision_no[14] 	0
scalar dtelecom_network.node[14].content_store 	decision_ratio[14] 	0
scalar dtelecom_network.node[15].core_layer 	interests[15] 	0
scalar dtelecom_network.node[15].core_layer 	data[15] 	0
scalar dtelecom_network.node[15].content_store 	p_hit[15] 	-nan
scalar dtelecom_network.node[15].content_store 	hits[15] 	0
scalar dtelecom_network.node[15].content_store 	misses[15] 	0
scalar dtelecom_network.node[15].content_store 	decision_yes[15] 	0
scalar dtelecom_network.node[15].content_store 	decision_no[15] 	0
scalar dtelecom_network.node[15].content_store 	decision_ratio[15] 	0
scalar dtelecom_network.node[16].core_layer 	interests[16] 	16543
scalar dtelecom_network.node[16].core_layer 	repo_load[16] 	11684
scalar dtelecom_network.node[16].core_layer 	data[16] 	0
scalar dtelecom_network.node[16].content_store 	p_hit[16] 	0.29371939793266
scalar dtelecom_network.node[16].content_store 	hits[16] 	4859
scalar dtelecom_network.node[16].content_store 	misses[16] 	11684
scalar dtelecom_network.node[16].content_store 	decision_yes[16] 	29
scalar dtelecom_network.node[16].content_store 	decision_no[16] 	11655
scalar dtelecom_network.node[16].content_store 	decision_ratio[16] 	0.0024820267031838
scalar dtelecom_network.node[17].core_layer 	interests[17] 	13033
scalar dtelecom_network.node[17].core_layer 	data[17] 	9592
scalar dtelecom_network.node[17].content_store 	p_hit[17] 	0.26409882605693
scalar dtelecom_network.node[17].content_store 	hits[17] 	3442
scalar dtelecom_network.node[17].content_store 	misses[17] 	9591
scalar dtelecom_network.node[17].content_store 	decision_yes[17] 	6
scalar dtelecom_network.node[17].content_store 	decision_no[17] 	9586
scalar dtelecom_network.node[17].content_store 	decision_ratio[17] 	0.0006255212677231
scalar dtelecom_network.node[18].core_layer 	interests[18] 	18013
scalar dtelecom_network.node[18].core_layer 	repo_load[18] 	12473
scalar dtelecom_network.node[18].core_layer 	data[18] 	0
scalar dtelecom_network.node[18].content_store 	p_hit[18] 	0.30755565424971
scalar dtelecom_network.node[18].content_store 	hits[18] 	5540
scalar dtelecom_network.node[18].content_store 	misses[18] 	12473
scalar dtelecom_network.node[18].content_store 	decision_yes[18] 	37
scalar dtelecom_network.node[18].content_store 	decision_no[18] 	12436
scalar dtelecom_network.node[18].content_store 	decision_ratio[18] 	0.0029664074400706
scalar dtelecom_network.node[19].core_layer 	interests[19] 	16625
scalar dtelecom_network.node[19].core_layer 	repo_load[19] 	12062
scalar dtelecom_network.node[19].core_layer 	data[19] 	0
scalar dtelecom_network.node[19].content_store 	p_hit[19] 	0.27446616541353
scalar dtelecom_network.node[19].content_store 	hits[19] 	4563
scalar dtelecom_network.node[19].content_store 	misses[19] 	12062
scalar dtelecom_network.node[19].content_store 	decision_yes[19] 	25
scalar dtelecom_network.node[19].content_store 	decision_no[19] 	12037
scalar dtelecom_network.node[19].content_store 	decision_ratio[19] 	0.0020726247720113
scalar dtelecom_network.node[20].core_layer 	interests[20] 	0
scalar dtelecom_network.node[20].core_layer 	data[20] 	0
scalar dtelecom_network.node[20].content_store 	p_hit[20] 	-nan
scalar dtelecom_network.node[20].content_store 	hits[20] 	0
scalar dtelecom_network.node[20].content_store 	misses[20] 	0
scalar dtelecom_network.node[20].content_store 	decision_yes[20] 	0
scalar dtelecom_network.node[20].content_store 	decision_no[20] 	0
scalar dtelecom_network.node[20].content_store 	decision_ratio[20] 	0
scalar dtelecom_network.node[21].core_layer 	interests[21] 	16436
scalar dtelecom_network.node[21].core_layer 	repo_load[21] 	11554
scalar dtelecom_network.node[21].core_layer 	data[21] 	0
scalar dtelecom_network.node[21].content_store 	p_hit[21] 	0.29703090776345
scalar dtelecom_network.node[21].content_store 	hits[21] 	4882
scalar dtelecom_network.node[21].content_store 	misses[21] 	11554
scalar dtelecom_network.node[21].content_store 	decision_yes[21] 	19
scalar dtelecom_network.node[21].content_store 	decision_no[21] 	11535
scalar dtelecom_network.node[21].content_store 	decision_ratio[21] 	0.0016444521377878
scalar dtelecom_network.node[22].core_layer 	interests[22] 	12039
scalar dtelecom_network.node[22].core_layer 	data[22] 	8635
scalar dtelecom_network.node[22].content_store 	p_hit[22] 	0.28266467314561
scalar dtelecom_network.node[22].content_store 	hits[22] 	3403
scalar dtelecom_network.node[22].content_store 	misses[22] 	8636
scalar dtelecom_network.node[22].content_store 	decision_yes[22] 	12
scalar dtelecom_network.node[22].content_store 	decision_no[22] 	8623
scalar dtelecom_network.node[22].content_store 	decision_ratio[22] 	0.0013896931094383
scalar dtelecom_network.node[23].core_layer 	interests[23] 	21628
scalar dtelecom_network.node[23].core_layer 	data[23] 	18009
scalar dtelecom_network.node[23].content_store 	p_hit[23] 	0.16728315147032
scalar dtelecom_network.node[23].content_store 	hits[23] 	3618
scalar dtelecom_network.node[23].content_store 	misses[23] 	18010
scalar dtelecom_network.node[23].content_store 	decision_yes[23] 	8
scalar dtelecom_network.node[23].content_store 	decision_no[23] 	18001
scalar dtelecom_network.node[23].content_store 	decision_ratio[23] 	0.00044422233327781
scalar dtelecom_network.node[24].core_layer 	interests[24] 	0
scalar dtelecom_network.node[24].core_layer 	data[24] 	0
scalar dtelecom_network.node[24].content_store 	p_hit[24] 	-nan
scalar dtelecom_network.node[24].content_store 	hits[24] 	0
scalar dtelecom_network.node[24].content_store 	misses[24] 	0
scalar dtelecom_network.node[24].content_store 	decision_yes[24] 	0
scalar dtelecom_network.node[24].content_store 	decision_no[24] 	0
scalar dtelecom_network.node[24].content_store 	decision_ratio[24] 	0
scalar dtelecom_network.node[25].core_layer 	interests[25] 	16073
scalar dtelecom_network.node[25].core_layer 	repo_load[25] 	12070
scalar dtelecom_network.node[25].core_layer 	data[25] 	0
scalar dtelecom_network.node[25].content_store 	p_hit[25] 	0.24905120388229
scalar dtelecom_network.node[25].content_store 	hits[25] 	4003
scalar dtelecom_network.node[25].content_store 	misses[25] 	12070
scalar dtelecom_network.node[25].content_store 	decision_yes[25] 	32
scalar dtelecom_network.node[25].content_store 	decision_no[25] 	12038
scalar dtelecom_network.node[25].content_store 	decision_ratio[25] 	0.0026512013256007
scalar dtelecom_network.node[26].core_layer 	interests[26] 	18378
scalar dtelecom_network.node[26].core_layer 	repo_load[26] 	12446
scalar dtelecom_network.node[26].core_layer 	data[26] 	531
scalar dtelecom_network.node[26].content_store 	p_hit[26] 	0.29388399172924
scalar dtelecom_network.node[26].content_store 	hits[26] 	5401
scalar dtelecom_network.node[26].content_store 	misses[26] 	12977
scalar dtelecom_network.node[26].content_store 	decision_yes[26] 	24
scalar dtelecom_network.node[26].content_store 	decision_no[26] 	12953
scalar dtelecom_network.node[26].content_store 	decision_ratio[26] 	0.0018494259073746
scalar dtelecom_network.node[27].core_layer 	interests[27] 	0
scalar dtelecom_network.node[27].core_layer 	data[27] 	0
scalar dtelecom_network.node[27].content_store 	p_hit[27] 	-nan
scalar dtelecom_network.node[27].content_store 	hits[27] 	0
scalar dtelecom_network.node[27].content_store 	misses[27] 	0
scalar dtelecom_network.node[27].content_store 	decision_yes[27] 	0
scalar dtelecom_network.node[27].content_store 	decision_no[27] 	0
scalar dtelecom_network.node[27].content_store 	decision_ratio[27] 	0
scalar dtelecom_network.node[28].core_layer 	interests[28] 	11818
scalar dtelecom_network.node[28].core_layer 	data[28] 	8429
scalar dtelecom_network.node[28].content_store 	p_hit[28] 	0.28676595024539
scalar dtelecom_network.node[28].content_store 	hits[28] 	3389
scalar dtelecom_network.node[28].content_store 	misses[28] 	8429
scalar dtelecom_network.node[28].content_store 	decision_yes[28] 	8
scalar dtelecom_network.node[28].content_store 	decision_no[28] 	8421
scalar dtelecom_network.node[28].content_store 	decision_ratio[28] 	0.00094910428283308
scalar dtelecom_network.node[29].core_layer 	interests[29] 	0
scalar dtelecom_network.node[29].core_layer 	data[29] 	0
scalar dtelecom_network.node[29].content_store 	p_hit[29] 	-nan
scalar dtelecom_network.node[29].content_store 	hits[29] 	0
scalar dtelecom_network.node[29].content_store 	misses[29] 	0
scalar dtelecom_network.node[29].content_store 	decision_yes[29] 	0
scalar dtelecom_network.node[29].content_store 	decision_no[29] 	0
scalar dtelecom_network.node[29].content_store 	decision_ratio[29] 	0
scalar dtelecom_network.node[30].core_layer 	interests[30] 	11948
scalar dtelecom_network.node[30].core_layer 	data[30] 	8532
scalar dtelecom_network.node[30].content_store 	p_hit[30] 	0.28590559089387
scalar dtelecom_network.node[30].content_store 	hits[30] 	3416
scalar dtelecom_network.node[30].content_store 	misses[30] 	8532
scalar dtelecom_network.node[30].content_store 	decision_yes[30] 	4
scalar dtelecom_network.node[30].content_store 	decision_no[30] 	8528
scalar dtelecom_network.node[30].content_store 	decision_ratio[30] 	0.00046882325363338
scalar dtelecom_network.node[31].core_layer 	interests[31] 	12095
scalar dtelecom_network.node[31].core_layer 	data[31] 	8722
scalar dtelecom_network.node[31].content_store 	p_hit[31] 	0.2788755684167
scalar dtelecom_network.node[31].content_store 	hits[31] 	3373
scalar dtelecom_network.node[31].content_store 	misses[31] 	8722
scalar dtelecom_network.node[31].content_store 	decision_yes[31] 	5
scalar dtelecom_network.node[31].content_store 	decision_no[31] 	8717
scalar dtelecom_network.node[31].content_store 	decision_ratio[31] 	0.0005732630130704
scalar dtelecom_network.node[32].core_layer 	interests[32] 	28792
scalar dtelecom_network.node[32].core_layer 	repo_load[32] 	12524
scalar dtelecom_network.node[32].core_layer 	data[32] 	9113
scalar dtelecom_network.node[32].content_store 	p_hit[32] 	0.24850652959155
scalar dtelecom_network.node[32].content_store 	hits[32] 	7155
scalar dtelecom_network.node[32].content_store 	misses[32] 	21637
scalar dtelecom_network.node[32].content_store 	decision_yes[32] 	30
scalar dtelecom_network.node[32].content_store 	decision_no[32] 	21607
scalar dtelecom_network.node[32].content_store 	decision_ratio[32] 	0.0013865138420299
scalar dtelecom_network.node[33].core_layer 	interests[33] 	12076
scalar dtelecom_network.node[33].core_layer 	data[33] 	8584
scalar dtelecom_network.node[33].content_store 	p_hit[33] 	0.28908578999669
scalar dtelecom_network.node[33].content_store 	hits[33] 	3491
scalar dtelecom_network.node[33].content_store 	misses[33] 	8585
scalar dtelecom_network.node[33].content_store 	decision_yes[33] 	7
scalar dtelecom_network.node[33].content_store 	decision_no[33] 	8577
scalar dtelecom_network.node[33].content_store 	decision_ratio[33] 	0.00081547064305685
scalar dtelecom_network.node[34].core_layer 	interests[34] 	0
scalar dtelecom_network.node[34].core_layer 	data[34] 	0
scalar dtelecom_network.node[34].content_store 	p_hit[34] 	-nan
scalar dtelecom_network.node[34].content_store 	hits[34] 	0
scalar dtelecom_network.node[34].content_store 	misses[34] 	0
scalar dtelecom_network.node[34].content_store 	decision_yes[34] 	0
scalar dtelecom_network.node[34].content_store 	decision_no[34] 	0
scalar dtelecom_network.node[34].content_store 	decision_ratio[34] 	0
scalar dtelecom_network.node[35].core_layer 	interests[35] 	0
scalar dtelecom_network.node[35].core_layer 	data[35] 	0
scalar dtelecom_network.node[35].content_store 	p_hit[35] 	-nan
scalar dtelecom_network.node[35].content_store 	hits[35] 	0
scalar dtelecom_network.node[35].content_store 	misses[35] 	0
scalar dtelecom_network.node[35].content_store 	decision_yes[35] 	0
scalar dtelecom_network.node[35].content_store 	decision_no[35] 	0
scalar dtelecom_network.node[35].content_store 	decision_ratio[35] 	0
scalar dtelecom_network.node[36].core_layer 	interests[36] 	12102
scalar dtelecom_network.node[36].core_layer 	data[36] 	8665
scalar dtelecom_network.node[36].content_store 	p_hit[36] 	0.28400264419104
scalar dtelecom_network.node[36].content_store 	hits[36] 	3437
scalar dtelecom_network.node[36].content_store 	misses[36] 	8665
scalar dtelecom_network.node[36].content_store 	decision_yes[36] 	5
scalar dtelecom_network.node[36].content_store 	decision_no[36] 	8660
scalar dtelecom_network.node[36].content_store 	decision_ratio[36] 	0.00057703404500866
scalar dtelecom_network.node[37].core_layer 	interests[37] 	12037
scalar dtelecom_network.node[37].core_layer 	data[37] 	8663
scalar dtelecom_network.node[37].content_store 	p_hit[37] 	0.28021932375177
scalar dtelecom_network.node[37].content_store 	hits[37] 	3373
scalar dtelecom_network.node[37].content_store 	misses[37] 	8664
scalar dtelecom_network.node[37].content_store 	decision_yes[37] 	2
scalar dtelecom_network.node[37].content_store 	decision_no[37] 	8661
scalar dtelecom_network.node[37].content_store 	decision_ratio[37] 	0.00023086690522914
scalar dtelecom_network.node[38].core_layer 	interests[38] 	0
scalar dtelecom_network.node[38].core_layer 	data[38] 	0
scalar dtelecom_network.node[38].content_store 	p_hit[38] 	-nan
scalar dtelecom_network.node[38].content_store 	hits[38] 	0
scalar dtelecom_network.node[38].content_store 	misses[38] 	0
scalar dtelecom_network.node[38].content_store 	decision_yes[38] 	0
scalar dtelecom_network.node[38].content_store 	decision_no[38] 	0
scalar dtelecom_network.node[38].content_store 	decision_ratio[38] 	0
scalar dtelecom_network.node[39].core_layer 	interests[39] 	0
scalar dtelecom_network.node[39].core_layer 	data[39] 	0
scalar dtelecom_network.node[39].content_store 	p_hit[39] 	-nan
scalar dtelecom_network.node[39].content_store 	hits[39] 	0
scalar dtelecom_network.node[39].content_store 	misses[39] 	0
scalar dtelecom_network.node[39].content_store 	decision_yes[39] 	0
scalar dtelecom_network.node[39].content_store 	decision_no[39] 	0
scalar dtelecom_network.node[39].content_store 	decision_ratio[39] 	0
scalar dtelecom_network.node[40].core_layer 	interests[40] 	12123
scalar dtelecom_network.node[40].core_layer 	data[40] 	8700
scalar dtelecom_network.node[40].content_store 	p_hit[40] 	0.28235585251175
scalar dtelecom_network.node[40].content_store 	hits[40] 	3423
scalar dtelecom_network.node[40].content_store 	misses[40] 	8700
scalar dtelecom_network.node[40].content_store 	decision_yes[40] 	11
scalar dtelecom_network.node[40].content_store 	decision_no[40] 	8689
scalar dtelecom_network.node[40].content_store 	decision_ratio[40] 	0.001264367816092
scalar dtelecom_network.node[41].core_layer 	interests[41] 	0
scalar dtelecom_network.node[41].core_layer 	data[41] 	0
scalar dtelecom_network.node[41].content_store 	p_hit[41] 	-nan
scalar dtelecom_network.node[41].content_store 	hits[41] 	0
scalar dtelecom_network.node[41].content_store 	misses[41] 	0
scalar dtelecom_network.node[41].content_store 	decision_yes[41] 	0
scalar dtelecom_network.node[41].content_store 	decision_no[41] 	0
scalar dtelecom_network.node[41].content_store 	decision_ratio[41] 	0
scalar dtelecom_network.node[42].core_layer 	interests[42] 	11788
scalar dtelecom_network.node[42].core_layer 	data[42] 	8485
scalar dtelecom_network.node[42].content_store 	p_hit[42] 	0.28020020359688
scalar dtelecom_network.node[42].content_store 	hits[42] 	3303
scalar dtelecom_network.node[42].content_store 	misses[42] 	8485
scalar dtelecom_network.node[42].content_store 	decision_yes[42] 	1
scalar dtelecom_network.node[42].content_store 	decision_no[42] 	8484
scalar dtelecom_network.node[42].content_store 	decision_ratio[42] 	0.00011785503830289
scalar dtelecom_network.node[43].core_layer 	interests[43] 	0
scalar dtelecom_network.node[43].core_layer 	data[43] 	0
scalar dtelecom_network.node[43].content_store 	p_hit[43] 	-nan
scalar dtelecom_network.node[43].content_store 	hits[43] 	0
scalar dtelecom_network.node[43].content_store 	misses[43] 	0
scalar dtelecom_network.node[43].content_store 	decision_yes[43] 	0
scalar dtelecom_network.node[43].content_store 	decision_no[43] 	0
scalar dtelecom_network.node[43].content_store 	decision_ratio[43] 	0
scalar dtelecom_network.node[44].core_layer 	interests[44] 	0
scalar dtelecom_network.node[44].core_layer 	data[44] 	0
scalar dtelecom_network.node[44].content_store 	p_hit[44] 	-nan
scalar dtelecom_network.node[44].content_store 	hits[44] 	0
scalar dtelecom_network.node[44].content_store 	misses[44] 	0
scalar dtelecom_network.node[44].content_store 	decision_yes[44] 	0
scalar dtelecom_network.node[44].content_store 	decision_no[44] 	0
scalar dtelecom_network.node[44].content_store 	decision_ratio[44] 	0
scalar dtelecom_network.node[45].core_layer 	interests[45] 	12025
scalar dtelecom_network.node[45].core_layer 	data[45] 	8602
scalar dtelecom_network.node[45].content_store 	p_hit[45] 	0.2845738045738
scalar dtelecom_network.node[45].content_store 	hits[45] 	3422
scalar dtelecom_network.node[45].content_store 	misses[45] 	8603
scalar dtelecom_network.node[45].content_store 	decision_yes[45] 	3
scalar dtelecom_network.node[45].content_store 	decision_no[45] 	8599
scalar dtelecom_network.node[45].content_store 	decision_ratio[45] 	0.00034875610323181
scalar dtelecom_network.node[46].core_layer 	interests[46] 	29118
scalar dtelecom_network.node[46].core_layer 	repo_load[46] 	12843
scalar dtelecom_network.node[46].core_layer 	data[46] 	9085
scalar dtelecom_network.node[46].content_store 	p_hit[46] 	0.24692629988323
scalar dtelecom_network.node[46].content_store 	hits[46] 	7190
scalar dtelecom_network.node[46].content_store 	misses[46] 	21928
scalar dtelecom_network.node[46].content_store 	decision_yes[46] 	31
scalar dtelecom_network.node[46].content_store 	decision_no[46] 	21897
scalar dtelecom_network.node[46].content_store 	decision_ratio[46] 	0.0014137176213061
scalar dtelecom_network.node[47].core_layer 	interests[47] 	0
scalar dtelecom_network.node[47].core_layer 	data[47] 	0
scalar dtelecom_network.node[47].content_store 	p_hit[47] 	-nan
scalar dtelecom_network.node[47].content_store 	hits[47] 	0
scalar dtelecom_network.node[47].content_store 	misses[47] 	0
scalar dtelecom_network.node[47].content_store 	decision_yes[47] 	0
scalar dtelecom_network.node[47].content_store 	decision_no[47] 	0
scalar dtelecom_network.node[47].content_store 	decision_ratio[47] 	0
scalar dtelecom_network.node[48].core_layer 	interests[48] 	27385
scalar dtelecom_network.node[48].core_layer 	repo_load[48] 	11615
scalar dtelecom_network.node[48].core_layer 	data[48] 	9171
scalar dtelecom_network.node[48].content_store 	p_hit[48] 	0.24097133467227
scalar dtelecom_network.node[48].content_store 	hits[48] 	6599
scalar dtelecom_network.node[48].content_store 	misses[48] 	20786
scalar dtelecom_network.node[48].content_store 	decision_yes[48] 	16
scalar dtelecom_network.node[48].content_store 	decision_no[48] 	20770
scalar dtelecom_network.node[48].content_store 	decision_ratio[48] 	0.00076974886943135
scalar dtelecom_network.node[49].core_layer 	interests[49] 	11847
scalar dtelecom_network.node[49].core_layer 	data[49] 	8463
scalar dtelecom_network.node[49].content_store 	p_hit[49] 	0.28555752511184
scalar dtelecom_network.node[49].content_store 	hits[49] 	3383
scalar dtelecom_network.node[49].content_store 	misses[49] 	8464
scalar dtelecom_network.node[49].content_store 	decision_yes[49] 	6
scalar dtelecom_network.node[49].content_store 	decision_no[49] 	8457
scalar dtelecom_network.node[49].content_store 	decision_ratio[49] 	0.00070896845090393
scalar dtelecom_network.node[50].core_layer 	interests[50] 	11966
scalar dtelecom_network.node[50].core_layer 	data[50] 	8482
scalar dtelecom_network.node[50].content_store 	p_hit[50] 	0.29115828179843
scalar dtelecom_network.node[50].content_store 	hits[50] 	3484
scalar dtelecom_network.node[50].content_store 	misses[50] 	8482
scalar dtelecom_network.node[50].content_store 	decision_yes[50] 	8
scalar dtelecom_network.node[50].content_store 	decision_no[50] 	8474
scalar dtelecom_network.node[50].content_store 	decision_ratio[50] 	0.00094317377976892
scalar dtelecom_network.node[51].core_layer 	interests[51] 	12028
scalar dtelecom_network.node[51].core_layer 	data[51] 	8575
scalar dtelecom_network.node[51].content_store 	p_hit[51] 	0.28708014632524
scalar dtelecom_network.node[51].content_store 	hits[51] 	3453
scalar dtelecom_network.node[51].content_store 	misses[51] 	8575
scalar dtelecom_network.node[51].content_store 	decision_yes[51] 	8
scalar dtelecom_network.node[51].content_store 	decision_no[51] 	8567
scalar dtelecom_network.node[51].content_store 	decision_ratio[51] 	0.00093294460641399
scalar dtelecom_network.node[52].core_layer 	interests[52] 	17505
scalar dtelecom_network.node[52].core_layer 	repo_load[52] 	12297
scalar dtelecom_network.node[52].core_layer 	data[52] 	0
scalar dtelecom_network.node[52].content_store 	p_hit[52] 	0.29751499571551
scalar dtelecom_network.node[52].content_store 	hits[52] 	5208
scalar dtelecom_network.node[52].content_store 	misses[52] 	12297
scalar dtelecom_network.node[52].content_store 	decision_yes[52] 	34
scalar dtelecom_network.node[52].content_store 	decision_no[52] 	12263
scalar dtelecom_network.node[52].content_store 	decision_ratio[52] 	0.00276490200862
scalar dtelecom_network.node[53].core_layer 	interests[53] 	11878
scalar dtelecom_network.node[53].core_layer 	data[53] 	8475
scalar dtelecom_network.node[53].content_store 	p_hit[53] 	0.28641185384745
scalar dtelecom_network.node[53].content_store 	hits[53] 	3402
scalar dtelecom_network.node[53].content_store 	misses[53] 	8476
scalar dtelecom_network.node[53].content_store 	decision_yes[53] 	6
scalar dtelecom_network.node[53].content_store 	decision_no[53] 	8469
scalar dtelecom_network.node[53].content_store 	decision_ratio[53] 	0.00070796460176991
scalar dtelecom_network.node[54].core_layer 	interests[54] 	28097
scalar dtelecom_network.node[54].core_layer 	repo_load[54] 	12394
scalar dtelecom_network.node[54].core_layer 	data[54] 	8985
scalar dtelecom_network.node[54].content_store 	p_hit[54] 	0.23895789586077
scalar dtelecom_network.node[54].content_store 	hits[54] 	6714
scalar dtelecom_network.node[54].content_store 	misses[54] 	21383
scalar dtelecom_network.node[54].content_store 	decision_yes[54] 	24
scalar dtelecom_network.node[54].content_store 	decision_no[54] 	21355
scalar dtelecom_network.node[54].content_store 	decision_ratio[54] 	0.0011225969409233
scalar dtelecom_network.node[55].core_layer 	interests[55] 	11966
scalar dtelecom_network.node[55].core_layer 	data[55] 	8554
scalar dtelecom_network.node[55].content_store 	p_hit[55] 	0.28522480361023
scalar dtelecom_network.node[55].content_store 	hits[55] 	3413
scalar dtelecom_network.node[55].content_store 	misses[55] 	8553
scalar dtelecom_network.node[55].content_store 	decision_yes[55] 	8
scalar dtelecom_network.node[55].content_store 	decision_no[55] 	8546
scalar dtelecom_network.node[55].content_store 	decision_ratio[55] 	0.00093523497778817
scalar dtelecom_network.node[56].core_layer 	interests[56] 	11870
scalar dtelecom_network.node[56].core_layer 	data[56] 	8454
scalar dtelecom_network.node[56].content_store 	p_hit[56] 	0.28778433024431
scalar dtelecom_network.node[56].content_store 	hits[56] 	3416
scalar dtelecom_network.node[56].content_store 	misses[56] 	8454
scalar dtelecom_network.node[56].content_store 	decision_yes[56] 	6
scalar dtelecom_network.node[56].content_store 	decision_no[56] 	8448
scalar dtelecom_network.node[56].content_store 	decision_ratio[56] 	0.0007097232079489
scalar dtelecom_network.node[57].core_layer 	interests[57] 	12048
scalar dtelecom_network.node[57].core_layer 	data[57] 	8628
scalar dtelecom_network.node[57].content_store 	p_hit[57] 	0.28378154050465
scalar dtelecom_network.node[57].content_store 	hits[57] 	3419
scalar dtelecom_network.node[57].content_store 	misses[57] 	8629
scalar dtelecom_network.node[57].content_store 	decision_yes[57] 	6
scalar dtelecom_network.node[57].content_store 	decision_no[57] 	8622
scalar dtelecom_network.node[57].content_store 	decision_ratio[57] 	0.00069541029207232
scalar dtelecom_network.node[58].core_layer 	interests[58] 	28217
scalar dtelecom_network.node[58].core_layer 	repo_load[58] 	12332
scalar dtelecom_network.node[58].core_layer 	data[58] 	9063
scalar dtelecom_network.node[58].content_store 	p_hit[58] 	0.24173370663075
scalar dtelecom_network.node[58].content_store 	hits[58] 	6821
scalar dtelecom_network.node[58].content_store 	misses[58] 	21396
scalar dtelecom_network.node[58].content_store 	decision_yes[58] 	20
scalar dtelecom_network.node[58].content_store 	decision_no[58] 	21375
scalar dtelecom_network.node[58].content_store 	decision_ratio[58] 	0.00093479784996495
scalar dtelecom_network.node[59].core_layer 	interests[59] 	12070
scalar dtelecom_network.node[59].core_layer 	data[59] 	8680
scalar dtelecom_network.node[59].content_store 	p_hit[59] 	0.28086164043082
scalar dtelecom_network.node[59].content_store 	hits[59] 	3390
scalar dtelecom_network.node[59].content_store 	misses[59] 	8680
scalar dtelecom_network.node[59].content_store 	decision_yes[59] 	8
scalar dtelecom_network.node[59].content_store 	decision_no[59] 	8672
scalar dtelecom_network.node[59].content_store 	decision_ratio[59] 	0.00092165898617512
scalar dtelecom_network.node[60].core_layer 	interests[60] 	0
scalar dtelecom_network.node[60].core_layer 	data[60] 	0
scalar dtelecom_network.node[60].content_store 	p_hit[60] 	-nan
scalar dtelecom_network.node[60].content_store 	hits[60] 	0
scalar dtelecom_network.node[60].content_store 	misses[60] 	0
scalar dtelecom_network.node[60].content_store 	decision_yes[60] 	0
scalar dtelecom_network.node[60].content_store 	decision_no[60] 	0
scalar dtelecom_network.node[60].content_store 	decision_ratio[60] 	0
scalar dtelecom_network.node[61].core_layer 	interests[61] 	0
scalar dtelecom_network.node[61].core_layer 	data[61] 	0
scalar dtelecom_network.node[61].content_store 	p_hit[61] 	-nan
scalar dtelecom_network.node[61].content_store 	hits[61] 	0
scalar dtelecom_network.node[61].content_store 	misses[61] 	0
scalar dtelecom_network.node[61].content_store 	decision_yes[61] 	0
scalar dtelecom_network.node[61].content_store 	decision_no[61] 	0
scalar dtelecom_network.node[61].content_store 	decision_ratio[61] 	0
scalar dtelecom_network.node[62].core_layer 	interests[62] 	11932
scalar dtelecom_network.node[62].core_layer 	data[62] 	8536
scalar dtelecom_network.node[62].content_store 	p_hit[62] 	0.28444518940664
scalar dtelecom_network.node[62].content_store 	hits[62] 	3394
scalar dtelecom_network.node[62].content_store 	misses[62] 	8538
scalar dtelecom_network.node[62].content_store 	decision_yes[62] 	7
scalar dtelecom_network.node[62].content_store 	decision_no[62] 	8529
scalar dtelecom_network.node[62].content_store 	decision_ratio[62] 	0.00082005623242737
scalar dtelecom_network.node[63].core_layer 	interests[63] 	0
scalar dtelecom_network.node[63].core_layer 	data[63] 	0
scalar dtelecom_network.node[63].content_store 	p_hit[63] 	-nan
scalar dtelecom_network.node[63].content_store 	hits[63] 	0
scalar dtelecom_network.node[63].content_store 	misses[63] 	0
scalar dtelecom_network.node[63].content_store 	decision_yes[63] 	0
scalar dtelecom_network.node[63].content_store 	decision_no[63] 	0
scalar dtelecom_network.node[63].content_store 	decision_ratio[63] 	0
scalar dtelecom_network.node[64].core_layer 	interests[64] 	0
scalar dtelecom_network.node[64].core_layer 	data[64] 	0
scalar dtelecom_network.node[64].content_store 	p_hit[64] 	-nan
scalar dtelecom_network.node[64].content_store 	hits[64] 	0
scalar dtelecom_network.node[64].content_store 	misses[64] 	0
scalar dtelecom_network.node[64].content_store 	decision_yes[64] 	0
scalar dtelecom_network.node[64].content_store 	decision_no[64] 	0
scalar dtelecom_network.node[64].content_store 	decision_ratio[64] 	0
scalar dtelecom_network.node[65].core_layer 	interests[65] 	583
scalar dtelecom_network.node[65].core_layer 	data[65] 	413
scalar dtelecom_network.node[65].content_store 	p_hit[65] 	0.29159519725557
scalar dtelecom_network.node[65].content_store 	hits[65] 	170
scalar dtelecom_network.node[65].content_store 	misses[65] 	413
scalar dtelecom_network.node[65].content_store 	decision_yes[65] 	0
scalar dtelecom_network.node[65].content_store 	decision_no[65] 	413
scalar dtelecom_network.node[65].content_store 	decision_ratio[65] 	0
scalar dtelecom_network.node[66].core_layer 	interests[66] 	24005
scalar dtelecom_network.node[66].core_layer 	repo_load[66] 	11251
scalar dtelecom_network.node[66].core_layer 	data[66] 	8681
scalar dtelecom_network.node[66].content_store 	p_hit[66] 	0.169589668819
scalar dtelecom_network.node[66].content_store 	hits[66] 	4071
scalar dtelecom_network.node[66].content_store 	misses[66] 	19934
scalar dtelecom_network.node[66].content_store 	decision_yes[66] 	19
scalar dtelecom_network.node[66].content_store 	decision_no[66] 	19913
scalar dtelecom_network.node[66].content_store 	decision_ratio[66] 	0.00095324101946619
scalar dtelecom_network.node[67].core_layer 	interests[67] 	11930
scalar dtelecom_network.node[67].core_layer 	data[67] 	8575
scalar dtelecom_network.node[67].content_store 	p_hit[67] 	0.28147527242246
scalar dtelecom_network.node[67].content_store 	hits[67] 	3358
scalar dtelecom_network.node[67].content_store 	misses[67] 	8572
scalar dtelecom_network.node[67].content_store 	decision_yes[67] 	11
scalar dtelecom_network.node[67].content_store 	decision_no[67] 	8564
scalar dtelecom_network.node[67].content_store 	decision_ratio[67] 	0.0012827988338192
scalar dtelecom_network.client[3] 	hdistance[3] 	1.2645891882956
scalar dtelecom_network.client[3] 	downloads[3] 	12098
scalar dtelecom_network.client[3] 	avg_time[3] 	0.011777819427
scalar dtelecom_network.client[4] 	hdistance[4] 	1.3005246065451
scalar dtelecom_network.client[4] 	downloads[4] 	12009
scalar dtelecom_network.client[4] 	avg_time[4] 	0.05070714517
scalar dtelecom_network.client[8] 	hdistance[8] 	1.8551559542424
scalar dtelecom_network.client[8] 	downloads[8] 	12151
scalar dtelecom_network.client[8] 	avg_time[8] 	0.014638665219
scalar dtelecom_network.client[9] 	hdistance[9] 	1.7509380471942
scalar dtelecom_network.client[9] 	downloads[9] 	11993
scalar dtelecom_network.client[9] 	avg_time[9] 	0.01445191761
scalar dtelecom_network.client[17] 	hdistance[17] 	1.7303549060543
scalar dtelecom_network.client[17] 	downloads[17] 	11975
scalar dtelecom_network.client[17] 	avg_time[17] 	0.011997802477
scalar dtelecom_network.client[22] 	hdistance[22] 	1.8567868416681
scalar dtelecom_network.client[22] 	downloads[22] 	12038
scalar dtelecom_network.client[22] 	avg_time[22] 	0.014442088282
scalar dtelecom_network.client[23] 	hdistance[23] 	1.7570711297071
scalar dtelecom_network.client[23] 	downloads[23] 	11950
scalar dtelecom_network.client[23] 	avg_time[23] 	0.013470123219
scalar dtelecom_network.client[28] 	hdistance[28] 	1.8404129294297
scalar dtelecom_network.client[28] 	downloads[28] 	11818
scalar dtelecom_network.client[28] 	avg_time[28] 	0.01448555054
scalar dtelecom_network.client[30] 	hdistance[30] 	1.8454971543355
scalar dtelecom_network.client[30] 	downloads[30] 	11948
scalar dtelecom_network.client[30] 	avg_time[30] 	0.013706782413
scalar dtelecom_network.client[31] 	hdistance[31] 	1.8253823894171
scalar dtelecom_network.client[31] 	downloads[31] 	12095
scalar dtelecom_network.client[31] 	avg_time[31] 	0.014603381182
scalar dtelecom_network.client[32] 	hdistance[32] 	1.8672164948454
scalar dtelecom_network.client[32] 	downloads[32] 	12125
scalar dtelecom_network.client[32] 	avg_time[32] 	0.013589670856
scalar dtelecom_network.client[33] 	hdistance[33] 	1.7425258799172
scalar dtelecom_network.client[33] 	downloads[33] 	12075
scalar dtelecom_network.client[33] 	avg_time[33] 	0.01343687048
scalar dtelecom_network.client[36] 	hdistance[36] 	1.8475458601884
scalar dtelecom_network.client[36] 	downloads[36] 	12102
scalar dtelecom_network.client[36] 	avg_time[36] 	0.014536744264
scalar dtelecom_network.client[37] 	hdistance[37] 	1.8575938850116
scalar dtelecom_network.client[37] 	downloads[37] 	12036
scalar dtelecom_network.client[37] 	avg_time[37] 	0.013571371977
scalar dtelecom_network.client[40] 	hdistance[40] 	1.8221562319558
scalar dtelecom_network.client[40] 	downloads[40] 	12123
scalar dtelecom_network.client[40] 	avg_time[40] 	0.014908008039
scalar dtelecom_network.client[42] 	hdistance[42] 	1.8581608415338
scalar dtelecom_network.client[42] 	downloads[42] 	11788
scalar dtelecom_network.client[42] 	avg_time[42] 	0.01508416032
scalar dtelecom_network.client[45] 	hdistance[45] 	1.8119594145043
scalar dtelecom_network.client[45] 	downloads[45] 	12024
scalar dtelecom_network.client[45] 	avg_time[45] 	0.013757789754
scalar dtelecom_network.client[46] 	hdistance[46] 	1.9291813159216
scalar dtelecom_network.client[46] 	downloads[46] 	11946
scalar dtelecom_network.client[46] 	avg_time[46] 	0.017404145606
scalar dtelecom_network.client[48] 	hdistance[48] 	1.9207961678229
scalar dtelecom_network.client[48] 	downloads[48] 	12108
scalar dtelecom_network.client[48] 	avg_time[48] 	0.015668010758
scalar dtelecom_network.client[49] 	hdistance[49] 	1.8518487253081
scalar dtelecom_network.client[49] 	downloads[49] 	11846
scalar dtelecom_network.client[49] 	avg_time[49] 	0.013465318031
scalar dtelecom_network.client[50] 	hdistance[50] 	1.7919939829517
scalar dtelecom_network.client[50] 	downloads[50] 	11966
scalar dtelecom_network.client[50] 	avg_time[50] 	0.012668327605
scalar dtelecom_network.client[51] 	hdistance[51] 	1.802544063851
scalar dtelecom_network.client[51] 	downloads[51] 	12028
scalar dtelecom_network.client[51] 	avg_time[51] 	0.013788046535
scalar dtelecom_network.client[53] 	hdistance[53] 	1.8420476551318
scalar dtelecom_network.client[53] 	downloads[53] 	11877
scalar dtelecom_network.client[53] 	avg_time[53] 	0.012821987207
scalar dtelecom_network.client[54] 	hdistance[54] 	1.9083625438157
scalar dtelecom_network.client[54] 	downloads[54] 	11982
scalar dtelecom_network.client[54] 	avg_time[54] 	0.015923453858
scalar dtelecom_network.client[55] 	hdistance[55] 	1.8506726832122
scalar dtelecom_network.client[55] 	downloads[55] 	11967
scalar dtelecom_network.client[55] 	avg_time[55] 	0.017757504212
scalar dtelecom_network.client[56] 	hdistance[56] 	1.8442291491154
scalar dtelecom_network.client[56] 	downloads[56] 	11870
scalar dtelecom_network.client[56] 	avg_time[56] 	0.012790943251
scalar dtelecom_network.client[57] 	hdistance[57] 	1.8134805345729
scalar dtelecom_network.client[57] 	downloads[57] 	12047
scalar dtelecom_network.client[57] 	avg_time[57] 	0.012280729441
scalar dtelecom_network.client[58] 	hdistance[58] 	1.8956428630261
scalar dtelecom_network.client[58] 	downloads[58] 	12141
scalar dtelecom_network.client[58] 	avg_time[58] 	0.015779819609
scalar dtelecom_network.client[59] 	hdistance[59] 	1.9117647058824
scalar dtelecom_network.client[59] 	downloads[59] 	12070
scalar dtelecom_network.client[59] 	avg_time[59] 	0.057756089267
scalar dtelecom_network.client[62] 	hdistance[62] 	2.3455993294216
scalar dtelecom_network.client[62] 	downloads[62] 	11930
scalar dtelecom_network.client[62] 	avg_time[62] 	0.058039962062
scalar dtelecom_network.client[66] 	hdistance[66] 	1.967714814192
scalar dtelecom_network.client[66] 	downloads[66] 	11894
scalar dtelecom_network.client[66] 	avg_time[66] 	0.090822378484
scalar dtelecom_network.client[67] 	hdistance[67] 	1.8889633788653
scalar dtelecom_network.client[67] 	downloads[67] 	11933
scalar dtelecom_network.client[67] 	avg_time[67] 	0.07197457161
