version 2
run General-70-20160824-05:46:48-9702
attr D ffc0.05
attr F spr
attr R lru
attr a 0.9
attr configname General
attr datetime 20160824-05:46:48
attr experiment General
attr inifile hw5115/scenario_C/omnetp.ini
attr iterationvars "$net=dtelecom, $rep=8, $a=0.9, $F=spr, $D=ffc0.05, $R=lru, $window=60, $variance=0.05, $mytime=600"
attr iterationvars2 "$net=dtelecom, $rep=8, $a=0.9, $F=spr, $D=ffc0.05, $R=lru, $window=60, $variance=0.05, $mytime=600, $repetition=0"
attr measurement "$net=dtelecom, $rep=8, $a=0.9, $F=spr, $D=ffc0.05, $R=lru, $window=60, $variance=0.05, $mytime=600"
attr mytime 600
attr net dtelecom
attr network networks.${net=dtelecom}_network
attr processid 9702
attr rep 8
attr repetition 0
attr replication #0
attr resultdir results
attr runnumber 70
attr seedset 8
attr variance 0.05
attr window 60

scalar . 	a 	0.9
scalar . 	mytime 	600
scalar . 	rep 	8
scalar . 	variance 	0.05
scalar . 	window 	60
scalar dtelecom_network.content_distribution 	repo-0 	4
scalar dtelecom_network.content_distribution 	repo-1 	62
scalar dtelecom_network.content_distribution 	repo-2 	15
scalar dtelecom_network.content_distribution 	repo-3 	61
scalar dtelecom_network.content_distribution 	repo-4 	23
scalar dtelecom_network.content_distribution 	repo-5 	44
scalar dtelecom_network.content_distribution 	repo-6 	50
scalar dtelecom_network.content_distribution 	repo-7 	8
scalar dtelecom_network.content_distribution 	repo-8 	28
scalar dtelecom_network.content_distribution 	repo-9 	31
scalar dtelecom_network.content_distribution 	repo-10 	1
scalar dtelecom_network.content_distribution 	repo-11 	39
scalar dtelecom_network.content_distribution 	repo-12 	3
scalar dtelecom_network.content_distribution 	repo-13 	55
scalar dtelecom_network.content_distribution 	repo-14 	45
scalar dtelecom_network.content_distribution 	repo-15 	22
scalar dtelecom_network.content_distribution 	client-0 	46
scalar dtelecom_network.content_distribution 	client-1 	30
scalar dtelecom_network.content_distribution 	client-2 	8
scalar dtelecom_network.content_distribution 	client-3 	49
scalar dtelecom_network.content_distribution 	client-4 	66
scalar dtelecom_network.content_distribution 	client-5 	58
scalar dtelecom_network.content_distribution 	client-6 	32
scalar dtelecom_network.content_distribution 	client-7 	40
scalar dtelecom_network.content_distribution 	client-8 	42
scalar dtelecom_network.content_distribution 	client-9 	45
scalar dtelecom_network.content_distribution 	client-10 	33
scalar dtelecom_network.content_distribution 	client-11 	28
scalar dtelecom_network.content_distribution 	client-12 	3
scalar dtelecom_network.content_distribution 	client-13 	57
scalar dtelecom_network.content_distribution 	client-14 	50
scalar dtelecom_network.content_distribution 	client-15 	17
scalar dtelecom_network.content_distribution 	client-16 	59
scalar dtelecom_network.content_distribution 	client-17 	48
scalar dtelecom_network.content_distribution 	client-18 	23
scalar dtelecom_network.content_distribution 	client-19 	22
scalar dtelecom_network.content_distribution 	client-20 	67
scalar dtelecom_network.content_distribution 	client-21 	62
scalar dtelecom_network.content_distribution 	client-22 	56
scalar dtelecom_network.content_distribution 	client-23 	55
scalar dtelecom_network.content_distribution 	client-24 	53
scalar dtelecom_network.content_distribution 	client-25 	36
scalar dtelecom_network.content_distribution 	client-26 	51
scalar dtelecom_network.content_distribution 	client-27 	37
scalar dtelecom_network.content_distribution 	client-28 	54
scalar dtelecom_network.content_distribution 	client-29 	4
scalar dtelecom_network.content_distribution 	client-30 	31
scalar dtelecom_network.content_distribution 	client-31 	9
scalar dtelecom_network.content_distribution 	repo-0_card 	6204
scalar dtelecom_network.content_distribution 	repo-0_price 	0
scalar dtelecom_network.content_distribution 	repo-1_card 	6316
scalar dtelecom_network.content_distribution 	repo-1_price 	0
scalar dtelecom_network.content_distribution 	repo-2_card 	6112
scalar dtelecom_network.content_distribution 	repo-2_price 	0
scalar dtelecom_network.content_distribution 	repo-3_card 	6350
scalar dtelecom_network.content_distribution 	repo-3_price 	0
scalar dtelecom_network.content_distribution 	repo-4_card 	6339
scalar dtelecom_network.content_distribution 	repo-4_price 	0
scalar dtelecom_network.content_distribution 	repo-5_card 	6223
scalar dtelecom_network.content_distribution 	repo-5_price 	0
scalar dtelecom_network.content_distribution 	repo-6_card 	6195
scalar dtelecom_network.content_distribution 	repo-6_price 	0
scalar dtelecom_network.content_distribution 	repo-7_card 	6310
scalar dtelecom_network.content_distribution 	repo-7_price 	0
scalar dtelecom_network.content_distribution 	repo-8_card 	6323
scalar dtelecom_network.content_distribution 	repo-8_price 	0
scalar dtelecom_network.content_distribution 	repo-9_card 	6231
scalar dtelecom_network.content_distribution 	repo-9_price 	0
scalar dtelecom_network.content_distribution 	repo-10_card 	6186
scalar dtelecom_network.content_distribution 	repo-10_price 	0
scalar dtelecom_network.content_distribution 	repo-11_card 	6137
scalar dtelecom_network.content_distribution 	repo-11_price 	0
scalar dtelecom_network.content_distribution 	repo-12_card 	6315
scalar dtelecom_network.content_distribution 	repo-12_price 	0
scalar dtelecom_network.content_distribution 	repo-13_card 	6325
scalar dtelecom_network.content_distribution 	repo-13_price 	0
scalar dtelecom_network.content_distribution 	repo-14_card 	6117
scalar dtelecom_network.content_distribution 	repo-14_price 	0
scalar dtelecom_network.content_distribution 	repo-15_card 	6317
scalar dtelecom_network.content_distribution 	repo-15_price 	0
scalar dtelecom_network.statistics 	stabilization_time 	33088.6
scalar dtelecom_network.statistics 	p_hit 	0.25576096162707
scalar dtelecom_network.statistics 	interests 	12653.838235294
scalar dtelecom_network.statistics 	data 	6998.1911764706
scalar dtelecom_network.statistics 	hdistance 	1.7612789078337
scalar dtelecom_network.statistics 	avg_time 	0.022739892975
scalar dtelecom_network.statistics 	downloads 	384560
scalar dtelecom_network.statistics 	total_cost 	0
scalar dtelecom_network.statistics 	total_replicas 	100000
scalar dtelecom_network.statistics 	inner_hit 	0.47622217599334
scalar dtelecom_network.node[0].core_layer 	interests[0] 	0
scalar dtelecom_network.node[0].core_layer 	data[0] 	0
scalar dtelecom_network.node[0].core_layer 	repo_int[0] 	201424
scalar dtelecom_network.node[0].content_store 	p_hit[0] 	-nan
scalar dtelecom_network.node[0].content_store 	hits[0] 	0
scalar dtelecom_network.node[0].content_store 	misses[0] 	0
scalar dtelecom_network.node[0].content_store 	decision_yes[0] 	0
scalar dtelecom_network.node[0].content_store 	decision_no[0] 	0
scalar dtelecom_network.node[0].content_store 	decision_ratio[0] 	0
scalar dtelecom_network.node[1].core_layer 	interests[1] 	172375
scalar dtelecom_network.node[1].core_layer 	repo_load[1] 	15172
scalar dtelecom_network.node[1].core_layer 	data[1] 	143664
scalar dtelecom_network.node[1].content_store 	p_hit[1] 	0.078422044960116
scalar dtelecom_network.node[1].content_store 	hits[1] 	13518
scalar dtelecom_network.node[1].content_store 	misses[1] 	158857
scalar dtelecom_network.node[1].content_store 	decision_yes[1] 	103
scalar dtelecom_network.node[1].content_store 	decision_no[1] 	158733
scalar dtelecom_network.node[1].content_store 	decision_ratio[1] 	0.00064846760180312
scalar dtelecom_network.node[2].core_layer 	interests[2] 	2704
scalar dtelecom_network.node[2].core_layer 	data[2] 	2298
scalar dtelecom_network.node[2].content_store 	p_hit[2] 	0.15014792899408
scalar dtelecom_network.node[2].content_store 	hits[2] 	406
scalar dtelecom_network.node[2].content_store 	misses[2] 	2298
scalar dtelecom_network.node[2].content_store 	decision_yes[2] 	5
scalar dtelecom_network.node[2].content_store 	decision_no[2] 	2293
scalar dtelecom_network.node[2].content_store 	decision_ratio[2] 	0.0021758050478677
scalar dtelecom_network.node[3].core_layer 	interests[3] 	30000
scalar dtelecom_network.node[3].core_layer 	repo_load[3] 	13012
scalar dtelecom_network.node[3].core_layer 	data[3] 	9246
scalar dtelecom_network.node[3].content_store 	p_hit[3] 	0.25803333333333
scalar dtelecom_network.node[3].content_store 	hits[3] 	7741
scalar dtelecom_network.node[3].content_store 	misses[3] 	22259
scalar dtelecom_network.node[3].content_store 	decision_yes[3] 	24
scalar dtelecom_network.node[3].content_store 	decision_no[3] 	22234
scalar dtelecom_network.node[3].content_store 	decision_ratio[3] 	0.0010782639949681
scalar dtelecom_network.node[4].core_layer 	interests[4] 	61305
scalar dtelecom_network.node[4].core_layer 	repo_load[4] 	14022
scalar dtelecom_network.node[4].core_layer 	data[4] 	36188
scalar dtelecom_network.node[4].content_store 	p_hit[4] 	0.18055623521736
scalar dtelecom_network.node[4].content_store 	hits[4] 	11069
scalar dtelecom_network.node[4].content_store 	misses[4] 	50236
scalar dtelecom_network.node[4].content_store 	decision_yes[4] 	43
scalar dtelecom_network.node[4].content_store 	decision_no[4] 	50167
scalar dtelecom_network.node[4].content_store 	decision_ratio[4] 	0.00085640310695081
scalar dtelecom_network.node[5].core_layer 	interests[5] 	0
scalar dtelecom_network.node[5].core_layer 	data[5] 	0
scalar dtelecom_network.node[5].content_store 	p_hit[5] 	-nan
scalar dtelecom_network.node[5].content_store 	hits[5] 	0
scalar dtelecom_network.node[5].content_store 	misses[5] 	0
scalar dtelecom_network.node[5].content_store 	decision_yes[5] 	0
scalar dtelecom_network.node[5].content_store 	decision_no[5] 	0
scalar dtelecom_network.node[5].content_store 	decision_ratio[5] 	0
scalar dtelecom_network.node[6].core_layer 	interests[6] 	0
scalar dtelecom_network.node[6].core_layer 	data[6] 	0
scalar dtelecom_network.node[6].content_store 	p_hit[6] 	-nan
scalar dtelecom_network.node[6].content_store 	hits[6] 	0
scalar dtelecom_network.node[6].content_store 	misses[6] 	0
scalar dtelecom_network.node[6].content_store 	decision_yes[6] 	0
scalar dtelecom_network.node[6].content_store 	decision_no[6] 	0
scalar dtelecom_network.node[6].content_store 	decision_ratio[6] 	0
scalar dtelecom_network.node[7].core_layer 	interests[7] 	0
scalar dtelecom_network.node[7].core_layer 	data[7] 	0
scalar dtelecom_network.node[7].content_store 	p_hit[7] 	-nan
scalar dtelecom_network.node[7].content_store 	hits[7] 	0
scalar dtelecom_network.node[7].content_store 	misses[7] 	0
scalar dtelecom_network.node[7].content_store 	decision_yes[7] 	0
scalar dtelecom_network.node[7].content_store 	decision_no[7] 	0
scalar dtelecom_network.node[7].content_store 	decision_ratio[7] 	0
scalar dtelecom_network.node[8].core_layer 	interests[8] 	27164
scalar dtelecom_network.node[8].core_layer 	repo_load[8] 	12008
scalar dtelecom_network.node[8].core_layer 	data[8] 	9029
scalar dtelecom_network.node[8].content_store 	p_hit[8] 	0.22555588278604
scalar dtelecom_network.node[8].content_store 	hits[8] 	6127
scalar dtelecom_network.node[8].content_store 	misses[8] 	21037
scalar dtelecom_network.node[8].content_store 	decision_yes[8] 	27
scalar dtelecom_network.node[8].content_store 	decision_no[8] 	21010
scalar dtelecom_network.node[8].content_store 	decision_ratio[8] 	0.0012834529638256
scalar dtelecom_network.node[9].core_layer 	interests[9] 	12604
scalar dtelecom_network.node[9].core_layer 	data[9] 	9214
scalar dtelecom_network.node[9].content_store 	p_hit[9] 	0.26896223421136
scalar dtelecom_network.node[9].content_store 	hits[9] 	3390
scalar dtelecom_network.node[9].content_store 	misses[9] 	9214
scalar dtelecom_network.node[9].content_store 	decision_yes[9] 	7
scalar dtelecom_network.node[9].content_store 	decision_no[9] 	9207
scalar dtelecom_network.node[9].content_store 	decision_ratio[9] 	0.00075971347948774
scalar dtelecom_network.node[10].core_layer 	interests[10] 	0
scalar dtelecom_network.node[10].core_layer 	data[10] 	0
scalar dtelecom_network.node[10].content_store 	p_hit[10] 	-nan
scalar dtelecom_network.node[10].content_store 	hits[10] 	0
scalar dtelecom_network.node[10].content_store 	misses[10] 	0
scalar dtelecom_network.node[10].content_store 	decision_yes[10] 	0
scalar dtelecom_network.node[10].content_store 	decision_no[10] 	0
scalar dtelecom_network.node[10].content_store 	decision_ratio[10] 	0
scalar dtelecom_network.node[11].core_layer 	interests[11] 	0
scalar dtelecom_network.node[11].core_layer 	data[11] 	0
scalar dtelecom_network.node[11].content_store 	p_hit[11] 	-nan
scalar dtelecom_network.node[11].content_store 	hits[11] 	0
scalar dtelecom_network.node[11].content_store 	misses[11] 	0
scalar dtelecom_network.node[11].content_store 	decision_yes[11] 	0
scalar dtelecom_network.node[11].content_store 	decision_no[11] 	0
scalar dtelecom_network.node[11].content_store 	decision_ratio[11] 	0
scalar dtelecom_network.node[12].core_layer 	interests[12] 	0
scalar dtelecom_network.node[12].core_layer 	data[12] 	0
scalar dtelecom_network.node[12].content_store 	p_hit[12] 	-nan
scalar dtelecom_network.node[12].content_store 	hits[12] 	0
scalar dtelecom_network.node[12].content_store 	misses[12] 	0
scalar dtelecom_network.node[12].content_store 	decision_yes[12] 	0
scalar dtelecom_network.node[12].content_store 	decision_no[12] 	0
scalar dtelecom_network.node[12].content_store 	decision_ratio[12] 	0
scalar dtelecom_network.node[13].core_layer 	interests[13] 	0
scalar dtelecom_network.node[13].core_layer 	data[13] 	0
scalar dtelecom_network.node[13].content_store 	p_hit[13] 	-nan
scalar dtelecom_network.node[13].content_store 	hits[13] 	0
scalar dtelecom_network.node[13].content_store 	misses[13] 	0
scalar dtelecom_network.node[13].content_store 	decision_yes[13] 	0
scalar dtelecom_network.node[13].content_store 	decision_no[13] 	0
scalar dtelecom_network.node[13].content_store 	decision_ratio[13] 	0
scalar dtelecom_network.node[14].core_layer 	interests[14] 	0
scalar dtelecom_network.node[14].core_layer 	data[14] 	0
scalar dtelecom_network.node[14].content_store 	p_hit[14] 	-nan
scalar dtelecom_network.node[14].content_store 	hits[14] 	0
scalar dtelecom_network.node[14].content_store 	misses[14] 	0
scalar dtelecom_network.node[14].content_store 	decision_yes[14] 	0
scalar dtelecom_network.node[14].content_store 	decision_no[14] 	0
scalar dtelecom_network.node[14].content_store 	decision_ratio[14] 	0
scalar dtelecom_network.node[15].core_layer 	interests[15] 	16573
scalar dtelecom_network.node[15].core_layer 	repo_load[15] 	11549
scalar dtelecom_network.node[15].core_layer 	data[15] 	0
scalar dtelecom_network.node[15].content_store 	p_hit[15] 	0.30314366741085
scalar dtelecom_network.node[15].content_store 	hits[15] 	5024
scalar dtelecom_network.node[15].content_store 	misses[15] 	11549
scalar dtelecom_network.node[15].content_store 	decision_yes[15] 	40
scalar dtelecom_network.node[15].content_store 	decision_no[15] 	11509
scalar dtelecom_network.node[15].content_store 	decision_ratio[15] 	0.003463503333622
scalar dtelecom_network.node[16].core_layer 	interests[16] 	0
scalar dtelecom_network.node[16].core_layer 	data[16] 	0
scalar dtelecom_network.node[16].content_store 	p_hit[16] 	-nan
scalar dtelecom_network.node[16].content_store 	hits[16] 	0
scalar dtelecom_network.node[16].content_store 	misses[16] 	0
scalar dtelecom_network.node[16].content_store 	decision_yes[16] 	0
scalar dtelecom_network.node[16].content_store 	decision_no[16] 	0
scalar dtelecom_network.node[16].content_store 	decision_ratio[16] 	0
scalar dtelecom_network.node[17].core_layer 	interests[17] 	12516
scalar dtelecom_network.node[17].core_layer 	data[17] 	9176
scalar dtelecom_network.node[17].content_store 	p_hit[17] 	0.26685842122084
scalar dtelecom_network.node[17].content_store 	hits[17] 	3340
scalar dtelecom_network.node[17].content_store 	misses[17] 	9176
scalar dtelecom_network.node[17].content_store 	decision_yes[17] 	10
scalar dtelecom_network.node[17].content_store 	decision_no[17] 	9166
scalar dtelecom_network.node[17].content_store 	decision_ratio[17] 	0.0010897994768963
scalar dtelecom_network.node[18].core_layer 	interests[18] 	0
scalar dtelecom_network.node[18].core_layer 	data[18] 	0
scalar dtelecom_network.node[18].content_store 	p_hit[18] 	-nan
scalar dtelecom_network.node[18].content_store 	hits[18] 	0
scalar dtelecom_network.node[18].content_store 	misses[18] 	0
scalar dtelecom_network.node[18].content_store 	decision_yes[18] 	0
scalar dtelecom_network.node[18].content_store 	decision_no[18] 	0
scalar dtelecom_network.node[18].content_store 	decision_ratio[18] 	0
scalar dtelecom_network.node[19].core_layer 	interests[19] 	0
scalar dtelecom_network.node[19].core_layer 	data[19] 	0
scalar dtelecom_network.node[19].content_store 	p_hit[19] 	-nan
scalar dtelecom_network.node[19].content_store 	hits[19] 	0
scalar dtelecom_network.node[19].content_store 	misses[19] 	0
scalar dtelecom_network.node[19].content_store 	decision_yes[19] 	0
scalar dtelecom_network.node[19].content_store 	decision_no[19] 	0
scalar dtelecom_network.node[19].content_store 	decision_ratio[19] 	0
scalar dtelecom_network.node[20].core_layer 	interests[20] 	0
scalar dtelecom_network.node[20].core_layer 	data[20] 	0
scalar dtelecom_network.node[20].content_store 	p_hit[20] 	-nan
scalar dtelecom_network.node[20].content_store 	hits[20] 	0
scalar dtelecom_network.node[20].content_store 	misses[20] 	0
scalar dtelecom_network.node[20].content_store 	decision_yes[20] 	0
scalar dtelecom_network.node[20].content_store 	decision_no[20] 	0
scalar dtelecom_network.node[20].content_store 	decision_ratio[20] 	0
scalar dtelecom_network.node[21].core_layer 	interests[21] 	0
scalar dtelecom_network.node[21].core_layer 	data[21] 	0
scalar dtelecom_network.node[21].content_store 	p_hit[21] 	-nan
scalar dtelecom_network.node[21].content_store 	hits[21] 	0
scalar dtelecom_network.node[21].content_store 	misses[21] 	0
scalar dtelecom_network.node[21].content_store 	decision_yes[21] 	0
scalar dtelecom_network.node[21].content_store 	decision_no[21] 	0
scalar dtelecom_network.node[21].content_store 	decision_ratio[21] 	0
scalar dtelecom_network.node[22].core_layer 	interests[22] 	27764
scalar dtelecom_network.node[22].core_layer 	repo_load[22] 	12647
scalar dtelecom_network.node[22].core_layer 	data[22] 	8963
scalar dtelecom_network.node[22].content_store 	p_hit[22] 	0.22165394035442
scalar dtelecom_network.node[22].content_store 	hits[22] 	6154
scalar dtelecom_network.node[22].content_store 	misses[22] 	21610
scalar dtelecom_network.node[22].content_store 	decision_yes[22] 	30
scalar dtelecom_network.node[22].content_store 	decision_no[22] 	21580
scalar dtelecom_network.node[22].content_store 	decision_ratio[22] 	0.001388246182323
scalar dtelecom_network.node[23].core_layer 	interests[23] 	52431
scalar dtelecom_network.node[23].core_layer 	repo_load[23] 	13220
scalar dtelecom_network.node[23].core_layer 	data[23] 	29657
scalar dtelecom_network.node[23].content_store 	p_hit[23] 	0.18191527912876
scalar dtelecom_network.node[23].content_store 	hits[23] 	9538
scalar dtelecom_network.node[23].content_store 	misses[23] 	42893
scalar dtelecom_network.node[23].content_store 	decision_yes[23] 	31
scalar dtelecom_network.node[23].content_store 	decision_no[23] 	42846
scalar dtelecom_network.node[23].content_store 	decision_ratio[23] 	0.00072299834410057
scalar dtelecom_network.node[24].core_layer 	interests[24] 	0
scalar dtelecom_network.node[24].core_layer 	data[24] 	0
scalar dtelecom_network.node[24].content_store 	p_hit[24] 	-nan
scalar dtelecom_network.node[24].content_store 	hits[24] 	0
scalar dtelecom_network.node[24].content_store 	misses[24] 	0
scalar dtelecom_network.node[24].content_store 	decision_yes[24] 	0
scalar dtelecom_network.node[24].content_store 	decision_no[24] 	0
scalar dtelecom_network.node[24].content_store 	decision_ratio[24] 	0
scalar dtelecom_network.node[25].core_layer 	interests[25] 	0
scalar dtelecom_network.node[25].core_layer 	data[25] 	0
scalar dtelecom_network.node[25].content_store 	p_hit[25] 	-nan
scalar dtelecom_network.node[25].content_store 	hits[25] 	0
scalar dtelecom_network.node[25].content_store 	misses[25] 	0
scalar dtelecom_network.node[25].content_store 	decision_yes[25] 	0
scalar dtelecom_network.node[25].content_store 	decision_no[25] 	0
scalar dtelecom_network.node[25].content_store 	decision_ratio[25] 	0
scalar dtelecom_network.node[26].core_layer 	interests[26] 	555
scalar dtelecom_network.node[26].core_layer 	data[26] 	408
scalar dtelecom_network.node[26].content_store 	p_hit[26] 	0.26486486486486
scalar dtelecom_network.node[26].content_store 	hits[26] 	147
scalar dtelecom_network.node[26].content_store 	misses[26] 	408
scalar dtelecom_network.node[26].content_store 	decision_yes[26] 	2
scalar dtelecom_network.node[26].content_store 	decision_no[26] 	406
scalar dtelecom_network.node[26].content_store 	decision_ratio[26] 	0.0049019607843137
scalar dtelecom_network.node[27].core_layer 	interests[27] 	0
scalar dtelecom_network.node[27].core_layer 	data[27] 	0
scalar dtelecom_network.node[27].content_store 	p_hit[27] 	-nan
scalar dtelecom_network.node[27].content_store 	hits[27] 	0
scalar dtelecom_network.node[27].content_store 	misses[27] 	0
scalar dtelecom_network.node[27].content_store 	decision_yes[27] 	0
scalar dtelecom_network.node[27].content_store 	decision_no[27] 	0
scalar dtelecom_network.node[27].content_store 	decision_ratio[27] 	0
scalar dtelecom_network.node[28].core_layer 	interests[28] 	28836
scalar dtelecom_network.node[28].core_layer 	repo_load[28] 	12950
scalar dtelecom_network.node[28].core_layer 	data[28] 	9050
scalar dtelecom_network.node[28].content_store 	p_hit[28] 	0.23703010126231
scalar dtelecom_network.node[28].content_store 	hits[28] 	6835
scalar dtelecom_network.node[28].content_store 	misses[28] 	22001
scalar dtelecom_network.node[28].content_store 	decision_yes[28] 	23
scalar dtelecom_network.node[28].content_store 	decision_no[28] 	21977
scalar dtelecom_network.node[28].content_store 	decision_ratio[28] 	0.0010454545454545
scalar dtelecom_network.node[29].core_layer 	interests[29] 	0
scalar dtelecom_network.node[29].core_layer 	data[29] 	0
scalar dtelecom_network.node[29].content_store 	p_hit[29] 	-nan
scalar dtelecom_network.node[29].content_store 	hits[29] 	0
scalar dtelecom_network.node[29].content_store 	misses[29] 	0
scalar dtelecom_network.node[29].content_store 	decision_yes[29] 	0
scalar dtelecom_network.node[29].content_store 	decision_no[29] 	0
scalar dtelecom_network.node[29].content_store 	decision_ratio[29] 	0
scalar dtelecom_network.node[30].core_layer 	interests[30] 	12088
scalar dtelecom_network.node[30].core_layer 	data[30] 	8637
scalar dtelecom_network.node[30].content_store 	p_hit[30] 	0.28548974189279
scalar dtelecom_network.node[30].content_store 	hits[30] 	3451
scalar dtelecom_network.node[30].content_store 	misses[30] 	8637
scalar dtelecom_network.node[30].content_store 	decision_yes[30] 	8
scalar dtelecom_network.node[30].content_store 	decision_no[30] 	8629
scalar dtelecom_network.node[30].content_store 	decision_ratio[30] 	0.00092624753965497
scalar dtelecom_network.node[31].core_layer 	interests[31] 	27864
scalar dtelecom_network.node[31].core_layer 	repo_load[31] 	12401
scalar dtelecom_network.node[31].core_layer 	data[31] 	9046
scalar dtelecom_network.node[31].content_store 	p_hit[31] 	0.23029715762274
scalar dtelecom_network.node[31].content_store 	hits[31] 	6417
scalar dtelecom_network.node[31].content_store 	misses[31] 	21447
scalar dtelecom_network.node[31].content_store 	decision_yes[31] 	32
scalar dtelecom_network.node[31].content_store 	decision_no[31] 	21415
scalar dtelecom_network.node[31].content_store 	decision_ratio[31] 	0.001492050170187
scalar dtelecom_network.node[32].core_layer 	interests[32] 	12185
scalar dtelecom_network.node[32].core_layer 	data[32] 	8710
scalar dtelecom_network.node[32].content_store 	p_hit[32] 	0.28510463684858
scalar dtelecom_network.node[32].content_store 	hits[32] 	3474
scalar dtelecom_network.node[32].content_store 	misses[32] 	8711
scalar dtelecom_network.node[32].content_store 	decision_yes[32] 	8
scalar dtelecom_network.node[32].content_store 	decision_no[32] 	8702
scalar dtelecom_network.node[32].content_store 	decision_ratio[32] 	0.00091848450057405
scalar dtelecom_network.node[33].core_layer 	interests[33] 	11756
scalar dtelecom_network.node[33].core_layer 	data[33] 	8357
scalar dtelecom_network.node[33].content_store 	p_hit[33] 	0.28912895542702
scalar dtelecom_network.node[33].content_store 	hits[33] 	3399
scalar dtelecom_network.node[33].content_store 	misses[33] 	8357
scalar dtelecom_network.node[33].content_store 	decision_yes[33] 	5
scalar dtelecom_network.node[33].content_store 	decision_no[33] 	8352
scalar dtelecom_network.node[33].content_store 	decision_ratio[33] 	0.00059830082565514
scalar dtelecom_network.node[34].core_layer 	interests[34] 	0
scalar dtelecom_network.node[34].core_layer 	data[34] 	0
scalar dtelecom_network.node[34].content_store 	p_hit[34] 	-nan
scalar dtelecom_network.node[34].content_store 	hits[34] 	0
scalar dtelecom_network.node[34].content_store 	misses[34] 	0
scalar dtelecom_network.node[34].content_store 	decision_yes[34] 	0
scalar dtelecom_network.node[34].content_store 	decision_no[34] 	0
scalar dtelecom_network.node[34].content_store 	decision_ratio[34] 	0
scalar dtelecom_network.node[35].core_layer 	interests[35] 	0
scalar dtelecom_network.node[35].core_layer 	data[35] 	0
scalar dtelecom_network.node[35].content_store 	p_hit[35] 	-nan
scalar dtelecom_network.node[35].content_store 	hits[35] 	0
scalar dtelecom_network.node[35].content_store 	misses[35] 	0
scalar dtelecom_network.node[35].content_store 	decision_yes[35] 	0
scalar dtelecom_network.node[35].content_store 	decision_no[35] 	0
scalar dtelecom_network.node[35].content_store 	decision_ratio[35] 	0
scalar dtelecom_network.node[36].core_layer 	interests[36] 	11926
scalar dtelecom_network.node[36].core_layer 	data[36] 	8496
scalar dtelecom_network.node[36].content_store 	p_hit[36] 	0.28752305886299
scalar dtelecom_network.node[36].content_store 	hits[36] 	3429
scalar dtelecom_network.node[36].content_store 	misses[36] 	8497
scalar dtelecom_network.node[36].content_store 	decision_yes[36] 	4
scalar dtelecom_network.node[36].content_store 	decision_no[36] 	8492
scalar dtelecom_network.node[36].content_store 	decision_ratio[36] 	0.00047080979284369
scalar dtelecom_network.node[37].core_layer 	interests[37] 	12030
scalar dtelecom_network.node[37].core_layer 	data[37] 	8635
scalar dtelecom_network.node[37].content_store 	p_hit[37] 	0.28221113881962
scalar dtelecom_network.node[37].content_store 	hits[37] 	3395
scalar dtelecom_network.node[37].content_store 	misses[37] 	8635
scalar dtelecom_network.node[37].content_store 	decision_yes[37] 	7
scalar dtelecom_network.node[37].content_store 	decision_no[37] 	8628
scalar dtelecom_network.node[37].content_store 	decision_ratio[37] 	0.00081065431383903
scalar dtelecom_network.node[38].core_layer 	interests[38] 	0
scalar dtelecom_network.node[38].core_layer 	data[38] 	0
scalar dtelecom_network.node[38].content_store 	p_hit[38] 	-nan
scalar dtelecom_network.node[38].content_store 	hits[38] 	0
scalar dtelecom_network.node[38].content_store 	misses[38] 	0
scalar dtelecom_network.node[38].content_store 	decision_yes[38] 	0
scalar dtelecom_network.node[38].content_store 	decision_no[38] 	0
scalar dtelecom_network.node[38].content_store 	decision_ratio[38] 	0
scalar dtelecom_network.node[39].core_layer 	interests[39] 	16053
scalar dtelecom_network.node[39].core_layer 	repo_load[39] 	11507
scalar dtelecom_network.node[39].core_layer 	data[39] 	0
scalar dtelecom_network.node[39].content_store 	p_hit[39] 	0.28318694325048
scalar dtelecom_network.node[39].content_store 	hits[39] 	4546
scalar dtelecom_network.node[39].content_store 	misses[39] 	11507
scalar dtelecom_network.node[39].content_store 	decision_yes[39] 	21
scalar dtelecom_network.node[39].content_store 	decision_no[39] 	11486
scalar dtelecom_network.node[39].content_store 	decision_ratio[39] 	0.0018249761015034
scalar dtelecom_network.node[40].core_layer 	interests[40] 	12579
scalar dtelecom_network.node[40].core_layer 	data[40] 	9159
scalar dtelecom_network.node[40].content_store 	p_hit[40] 	0.27180221003259
scalar dtelecom_network.node[40].content_store 	hits[40] 	3419
scalar dtelecom_network.node[40].content_store 	misses[40] 	9160
scalar dtelecom_network.node[40].content_store 	decision_yes[40] 	3
scalar dtelecom_network.node[40].content_store 	decision_no[40] 	9156
scalar dtelecom_network.node[40].content_store 	decision_ratio[40] 	0.00032754667540124
scalar dtelecom_network.node[41].core_layer 	interests[41] 	0
scalar dtelecom_network.node[41].core_layer 	data[41] 	0
scalar dtelecom_network.node[41].content_store 	p_hit[41] 	-nan
scalar dtelecom_network.node[41].content_store 	hits[41] 	0
scalar dtelecom_network.node[41].content_store 	misses[41] 	0
scalar dtelecom_network.node[41].content_store 	decision_yes[41] 	0
scalar dtelecom_network.node[41].content_store 	decision_no[41] 	0
scalar dtelecom_network.node[41].content_store 	decision_ratio[41] 	0
scalar dtelecom_network.node[42].core_layer 	interests[42] 	12200
scalar dtelecom_network.node[42].core_layer 	data[42] 	8729
scalar dtelecom_network.node[42].content_store 	p_hit[42] 	0.28450819672131
scalar dtelecom_network.node[42].content_store 	hits[42] 	3471
scalar dtelecom_network.node[42].content_store 	misses[42] 	8729
scalar dtelecom_network.node[42].content_store 	decision_yes[42] 	7
scalar dtelecom_network.node[42].content_store 	decision_no[42] 	8722
scalar dtelecom_network.node[42].content_store 	decision_ratio[42] 	0.00080192461908581
scalar dtelecom_network.node[43].core_layer 	interests[43] 	0
scalar dtelecom_network.node[43].core_layer 	data[43] 	0
scalar dtelecom_network.node[43].content_store 	p_hit[43] 	-nan
scalar dtelecom_network.node[43].content_store 	hits[43] 	0
scalar dtelecom_network.node[43].content_store 	misses[43] 	0
scalar dtelecom_network.node[43].content_store 	decision_yes[43] 	0
scalar dtelecom_network.node[43].content_store 	decision_no[43] 	0
scalar dtelecom_network.node[43].content_store 	decision_ratio[43] 	0
scalar dtelecom_network.node[44].core_layer 	interests[44] 	17175
scalar dtelecom_network.node[44].core_layer 	repo_load[44] 	12095
scalar dtelecom_network.node[44].core_layer 	data[44] 	0
scalar dtelecom_network.node[44].content_store 	p_hit[44] 	0.29577874818049
scalar dtelecom_network.node[44].content_store 	hits[44] 	5080
scalar dtelecom_network.node[44].content_store 	misses[44] 	12095
scalar dtelecom_network.node[44].content_store 	decision_yes[44] 	27
scalar dtelecom_network.node[44].content_store 	decision_no[44] 	12068
scalar dtelecom_network.node[44].content_store 	decision_ratio[44] 	0.0022323274080198
scalar dtelecom_network.node[45].core_layer 	interests[45] 	30020
scalar dtelecom_network.node[45].core_layer 	repo_load[45] 	12688
scalar dtelecom_network.node[45].core_layer 	data[45] 	9263
scalar dtelecom_network.node[45].content_store 	p_hit[45] 	0.26875416389074
scalar dtelecom_network.node[45].content_store 	hits[45] 	8068
scalar dtelecom_network.node[45].content_store 	misses[45] 	21952
scalar dtelecom_network.node[45].content_store 	decision_yes[45] 	35
scalar dtelecom_network.node[45].content_store 	decision_no[45] 	21916
scalar dtelecom_network.node[45].content_store 	decision_ratio[45] 	0.0015944603890483
scalar dtelecom_network.node[46].core_layer 	interests[46] 	11836
scalar dtelecom_network.node[46].core_layer 	data[46] 	8448
scalar dtelecom_network.node[46].content_store 	p_hit[46] 	0.28624535315985
scalar dtelecom_network.node[46].content_store 	hits[46] 	3388
scalar dtelecom_network.node[46].content_store 	misses[46] 	8448
scalar dtelecom_network.node[46].content_store 	decision_yes[46] 	9
scalar dtelecom_network.node[46].content_store 	decision_no[46] 	8439
scalar dtelecom_network.node[46].content_store 	decision_ratio[46] 	0.0010653409090909
scalar dtelecom_network.node[47].core_layer 	interests[47] 	0
scalar dtelecom_network.node[47].core_layer 	data[47] 	0
scalar dtelecom_network.node[47].content_store 	p_hit[47] 	-nan
scalar dtelecom_network.node[47].content_store 	hits[47] 	0
scalar dtelecom_network.node[47].content_store 	misses[47] 	0
scalar dtelecom_network.node[47].content_store 	decision_yes[47] 	0
scalar dtelecom_network.node[47].content_store 	decision_no[47] 	0
scalar dtelecom_network.node[47].content_store 	decision_ratio[47] 	0
scalar dtelecom_network.node[48].core_layer 	interests[48] 	11767
scalar dtelecom_network.node[48].core_layer 	data[48] 	8403
scalar dtelecom_network.node[48].content_store 	p_hit[48] 	0.28596923599898
scalar dtelecom_network.node[48].content_store 	hits[48] 	3365
scalar dtelecom_network.node[48].content_store 	misses[48] 	8402
scalar dtelecom_network.node[48].content_store 	decision_yes[48] 	10
scalar dtelecom_network.node[48].content_store 	decision_no[48] 	8393
scalar dtelecom_network.node[48].content_store 	decision_ratio[48] 	0.0011900511722004
scalar dtelecom_network.node[49].core_layer 	interests[49] 	12194
scalar dtelecom_network.node[49].core_layer 	data[49] 	8686
scalar dtelecom_network.node[49].content_store 	p_hit[49] 	0.28776447433164
scalar dtelecom_network.node[49].content_store 	hits[49] 	3509
scalar dtelecom_network.node[49].content_store 	misses[49] 	8685
scalar dtelecom_network.node[49].content_store 	decision_yes[49] 	8
scalar dtelecom_network.node[49].content_store 	decision_no[49] 	8678
scalar dtelecom_network.node[49].content_store 	decision_ratio[49] 	0.00092102233479162
scalar dtelecom_network.node[50].core_layer 	interests[50] 	27264
scalar dtelecom_network.node[50].core_layer 	repo_load[50] 	11632
scalar dtelecom_network.node[50].core_layer 	data[50] 	9000
scalar dtelecom_network.node[50].content_store 	p_hit[50] 	0.24325117370892
scalar dtelecom_network.node[50].content_store 	hits[50] 	6632
scalar dtelecom_network.node[50].content_store 	misses[50] 	20632
scalar dtelecom_network.node[50].content_store 	decision_yes[50] 	20
scalar dtelecom_network.node[50].content_store 	decision_no[50] 	20612
scalar dtelecom_network.node[50].content_store 	decision_ratio[50] 	0.0009693679720822
scalar dtelecom_network.node[51].core_layer 	interests[51] 	12049
scalar dtelecom_network.node[51].core_layer 	data[51] 	8632
scalar dtelecom_network.node[51].content_store 	p_hit[51] 	0.28367499377542
scalar dtelecom_network.node[51].content_store 	hits[51] 	3418
scalar dtelecom_network.node[51].content_store 	misses[51] 	8631
scalar dtelecom_network.node[51].content_store 	decision_yes[51] 	4
scalar dtelecom_network.node[51].content_store 	decision_no[51] 	8628
scalar dtelecom_network.node[51].content_store 	decision_ratio[51] 	0.00046339202965709
scalar dtelecom_network.node[52].core_layer 	interests[52] 	0
scalar dtelecom_network.node[52].core_layer 	data[52] 	0
scalar dtelecom_network.node[52].content_store 	p_hit[52] 	-nan
scalar dtelecom_network.node[52].content_store 	hits[52] 	0
scalar dtelecom_network.node[52].content_store 	misses[52] 	0
scalar dtelecom_network.node[52].content_store 	decision_yes[52] 	0
scalar dtelecom_network.node[52].content_store 	decision_no[52] 	0
scalar dtelecom_network.node[52].content_store 	decision_ratio[52] 	0
scalar dtelecom_network.node[53].core_layer 	interests[53] 	12231
scalar dtelecom_network.node[53].core_layer 	data[53] 	8746
scalar dtelecom_network.node[53].content_store 	p_hit[53] 	0.28484997138419
scalar dtelecom_network.node[53].content_store 	hits[53] 	3484
scalar dtelecom_network.node[53].content_store 	misses[53] 	8747
scalar dtelecom_network.node[53].content_store 	decision_yes[53] 	0
scalar dtelecom_network.node[53].content_store 	decision_no[53] 	8746
scalar dtelecom_network.node[53].content_store 	decision_ratio[53] 	0
scalar dtelecom_network.node[54].core_layer 	interests[54] 	12072
scalar dtelecom_network.node[54].core_layer 	data[54] 	8669
scalar dtelecom_network.node[54].content_store 	p_hit[54] 	0.28197481776011
scalar dtelecom_network.node[54].content_store 	hits[54] 	3404
scalar dtelecom_network.node[54].content_store 	misses[54] 	8668
scalar dtelecom_network.node[54].content_store 	decision_yes[54] 	7
scalar dtelecom_network.node[54].content_store 	decision_no[54] 	8662
scalar dtelecom_network.node[54].content_store 	decision_ratio[54] 	0.00080747491060099
scalar dtelecom_network.node[55].core_layer 	interests[55] 	27868
scalar dtelecom_network.node[55].core_layer 	repo_load[55] 	12370
scalar dtelecom_network.node[55].core_layer 	data[55] 	9112
scalar dtelecom_network.node[55].content_store 	p_hit[55] 	0.22915171522894
scalar dtelecom_network.node[55].content_store 	hits[55] 	6386
scalar dtelecom_network.node[55].content_store 	misses[55] 	21482
scalar dtelecom_network.node[55].content_store 	decision_yes[55] 	21
scalar dtelecom_network.node[55].content_store 	decision_no[55] 	21461
scalar dtelecom_network.node[55].content_store 	decision_ratio[55] 	0.00097756261055768
scalar dtelecom_network.node[56].core_layer 	interests[56] 	11921
scalar dtelecom_network.node[56].core_layer 	data[56] 	8541
scalar dtelecom_network.node[56].content_store 	p_hit[56] 	0.28344937505243
scalar dtelecom_network.node[56].content_store 	hits[56] 	3379
scalar dtelecom_network.node[56].content_store 	misses[56] 	8542
scalar dtelecom_network.node[56].content_store 	decision_yes[56] 	4
scalar dtelecom_network.node[56].content_store 	decision_no[56] 	8537
scalar dtelecom_network.node[56].content_store 	decision_ratio[56] 	0.00046832923545252
scalar dtelecom_network.node[57].core_layer 	interests[57] 	11833
scalar dtelecom_network.node[57].core_layer 	data[57] 	8448
scalar dtelecom_network.node[57].content_store 	p_hit[57] 	0.28597988675737
scalar dtelecom_network.node[57].content_store 	hits[57] 	3384
scalar dtelecom_network.node[57].content_store 	misses[57] 	8449
scalar dtelecom_network.node[57].content_store 	decision_yes[57] 	6
scalar dtelecom_network.node[57].content_store 	decision_no[57] 	8442
scalar dtelecom_network.node[57].content_store 	decision_ratio[57] 	0.00071022727272727
scalar dtelecom_network.node[58].core_layer 	interests[58] 	12112
scalar dtelecom_network.node[58].core_layer 	data[58] 	8635
scalar dtelecom_network.node[58].content_store 	p_hit[58] 	0.28707067371202
scalar dtelecom_network.node[58].content_store 	hits[58] 	3477
scalar dtelecom_network.node[58].content_store 	misses[58] 	8635
scalar dtelecom_network.node[58].content_store 	decision_yes[58] 	7
scalar dtelecom_network.node[58].content_store 	decision_no[58] 	8628
scalar dtelecom_network.node[58].content_store 	decision_ratio[58] 	0.00081065431383903
scalar dtelecom_network.node[59].core_layer 	interests[59] 	12019
scalar dtelecom_network.node[59].core_layer 	data[59] 	8579
scalar dtelecom_network.node[59].content_store 	p_hit[59] 	0.28613029370164
scalar dtelecom_network.node[59].content_store 	hits[59] 	3439
scalar dtelecom_network.node[59].content_store 	misses[59] 	8580
scalar dtelecom_network.node[59].content_store 	decision_yes[59] 	5
scalar dtelecom_network.node[59].content_store 	decision_no[59] 	8574
scalar dtelecom_network.node[59].content_store 	decision_ratio[59] 	0.00058281851031589
scalar dtelecom_network.node[60].core_layer 	interests[60] 	0
scalar dtelecom_network.node[60].core_layer 	data[60] 	0
scalar dtelecom_network.node[60].content_store 	p_hit[60] 	-nan
scalar dtelecom_network.node[60].content_store 	hits[60] 	0
scalar dtelecom_network.node[60].content_store 	misses[60] 	0
scalar dtelecom_network.node[60].content_store 	decision_yes[60] 	0
scalar dtelecom_network.node[60].content_store 	decision_no[60] 	0
scalar dtelecom_network.node[60].content_store 	decision_ratio[60] 	0
scalar dtelecom_network.node[61].core_layer 	interests[61] 	15356
scalar dtelecom_network.node[61].core_layer 	repo_load[61] 	12131
scalar dtelecom_network.node[61].core_layer 	data[61] 	0
scalar dtelecom_network.node[61].content_store 	p_hit[61] 	0.21001562907007
scalar dtelecom_network.node[61].content_store 	hits[61] 	3225
scalar dtelecom_network.node[61].content_store 	misses[61] 	12131
scalar dtelecom_network.node[61].content_store 	decision_yes[61] 	37
scalar dtelecom_network.node[61].content_store 	decision_no[61] 	12094
scalar dtelecom_network.node[61].content_store 	decision_ratio[61] 	0.0030500370950458
scalar dtelecom_network.node[62].core_layer 	interests[62] 	25416
scalar dtelecom_network.node[62].core_layer 	repo_load[62] 	12020
scalar dtelecom_network.node[62].core_layer 	data[62] 	8954
scalar dtelecom_network.node[62].content_store 	p_hit[62] 	0.17461441611583
scalar dtelecom_network.node[62].content_store 	hits[62] 	4438
scalar dtelecom_network.node[62].content_store 	misses[62] 	20978
scalar dtelecom_network.node[62].content_store 	decision_yes[62] 	21
scalar dtelecom_network.node[62].content_store 	decision_no[62] 	20953
scalar dtelecom_network.node[62].content_store 	decision_ratio[62] 	0.0010012396300181
scalar dtelecom_network.node[63].core_layer 	interests[63] 	0
scalar dtelecom_network.node[63].core_layer 	data[63] 	0
scalar dtelecom_network.node[63].content_store 	p_hit[63] 	-nan
scalar dtelecom_network.node[63].content_store 	hits[63] 	0
scalar dtelecom_network.node[63].content_store 	misses[63] 	0
scalar dtelecom_network.node[63].content_store 	decision_yes[63] 	0
scalar dtelecom_network.node[63].content_store 	decision_no[63] 	0
scalar dtelecom_network.node[63].content_store 	decision_ratio[63] 	0
scalar dtelecom_network.node[64].core_layer 	interests[64] 	0
scalar dtelecom_network.node[64].core_layer 	data[64] 	0
scalar dtelecom_network.node[64].content_store 	p_hit[64] 	-nan
scalar dtelecom_network.node[64].content_store 	hits[64] 	0
scalar dtelecom_network.node[64].content_store 	misses[64] 	0
scalar dtelecom_network.node[64].content_store 	decision_yes[64] 	0
scalar dtelecom_network.node[64].content_store 	decision_no[64] 	0
scalar dtelecom_network.node[64].content_store 	decision_ratio[64] 	0
scalar dtelecom_network.node[65].core_layer 	interests[65] 	0
scalar dtelecom_network.node[65].core_layer 	data[65] 	0
scalar dtelecom_network.node[65].content_store 	p_hit[65] 	-nan
scalar dtelecom_network.node[65].content_store 	hits[65] 	0
scalar dtelecom_network.node[65].content_store 	misses[65] 	0
scalar dtelecom_network.node[65].content_store 	decision_yes[65] 	0
scalar dtelecom_network.node[65].content_store 	decision_no[65] 	0
scalar dtelecom_network.node[65].content_store 	decision_ratio[65] 	0
scalar dtelecom_network.node[66].core_layer 	interests[66] 	12005
scalar dtelecom_network.node[66].core_layer 	data[66] 	8654
scalar dtelecom_network.node[66].content_store 	p_hit[66] 	0.27888379841733
scalar dtelecom_network.node[66].content_store 	hits[66] 	3348
scalar dtelecom_network.node[66].content_store 	misses[66] 	8657
scalar dtelecom_network.node[66].content_store 	decision_yes[66] 	5
scalar dtelecom_network.node[66].content_store 	decision_no[66] 	8649
scalar dtelecom_network.node[66].content_store 	decision_ratio[66] 	0.00057776750635544
scalar dtelecom_network.node[67].core_layer 	interests[67] 	11815
scalar dtelecom_network.node[67].core_layer 	data[67] 	8445
scalar dtelecom_network.node[67].content_store 	p_hit[67] 	0.2847228099873
scalar dtelecom_network.node[67].content_store 	hits[67] 	3364
scalar dtelecom_network.node[67].content_store 	misses[67] 	8451
scalar dtelecom_network.node[67].content_store 	decision_yes[67] 	6
scalar dtelecom_network.node[67].content_store 	decision_no[67] 	8439
scalar dtelecom_network.node[67].content_store 	decision_ratio[67] 	0.00071047957371226
scalar dtelecom_network.client[3] 	hdistance[3] 	1.4220441212922
scalar dtelecom_network.client[3] 	downloads[3] 	12103
scalar dtelecom_network.client[3] 	avg_time[3] 	0.014431814567
scalar dtelecom_network.client[4] 	hdistance[4] 	1.3256362717007
scalar dtelecom_network.client[4] 	downloads[4] 	11866
scalar dtelecom_network.client[4] 	avg_time[4] 	0.049990646788
scalar dtelecom_network.client[8] 	hdistance[8] 	1.8408505689841
scalar dtelecom_network.client[8] 	downloads[8] 	12039
scalar dtelecom_network.client[8] 	avg_time[8] 	0.016985173756
scalar dtelecom_network.client[9] 	hdistance[9] 	1.650760833609
scalar dtelecom_network.client[9] 	downloads[9] 	12092
scalar dtelecom_network.client[9] 	avg_time[9] 	0.015012193179
scalar dtelecom_network.client[17] 	hdistance[17] 	1.7807331061425
scalar dtelecom_network.client[17] 	downloads[17] 	12031
scalar dtelecom_network.client[17] 	avg_time[17] 	0.013882830425
scalar dtelecom_network.client[22] 	hdistance[22] 	1.8449287510478
scalar dtelecom_network.client[22] 	downloads[22] 	11930
scalar dtelecom_network.client[22] 	avg_time[22] 	0.016853191084
scalar dtelecom_network.client[23] 	hdistance[23] 	1.6979905942711
scalar dtelecom_network.client[23] 	downloads[23] 	11695
scalar dtelecom_network.client[23] 	avg_time[23] 	0.010208836647
scalar dtelecom_network.client[28] 	hdistance[28] 	1.7558724140773
scalar dtelecom_network.client[28] 	downloads[28] 	12133
scalar dtelecom_network.client[28] 	avg_time[28] 	0.016758438772
scalar dtelecom_network.client[30] 	hdistance[30] 	1.8142786234282
scalar dtelecom_network.client[30] 	downloads[30] 	12088
scalar dtelecom_network.client[30] 	avg_time[30] 	0.015204401592
scalar dtelecom_network.client[31] 	hdistance[31] 	1.8499000999001
scalar dtelecom_network.client[31] 	downloads[31] 	12012
scalar dtelecom_network.client[31] 	avg_time[31] 	0.01732100652
scalar dtelecom_network.client[32] 	hdistance[32] 	1.7962902166776
scalar dtelecom_network.client[32] 	downloads[32] 	12184
scalar dtelecom_network.client[32] 	avg_time[32] 	0.013354243269
scalar dtelecom_network.client[33] 	hdistance[33] 	1.6780367471929
scalar dtelecom_network.client[33] 	downloads[33] 	11756
scalar dtelecom_network.client[33] 	avg_time[33] 	0.014828062881
scalar dtelecom_network.client[36] 	hdistance[36] 	1.8052830188679
scalar dtelecom_network.client[36] 	downloads[36] 	11925
scalar dtelecom_network.client[36] 	avg_time[36] 	0.015242915479
scalar dtelecom_network.client[37] 	hdistance[37] 	1.7356608478803
scalar dtelecom_network.client[37] 	downloads[37] 	12030
scalar dtelecom_network.client[37] 	avg_time[37] 	0.014413753598
scalar dtelecom_network.client[40] 	hdistance[40] 	1.6636032455705
scalar dtelecom_network.client[40] 	downloads[40] 	12078
scalar dtelecom_network.client[40] 	avg_time[40] 	0.016114586692
scalar dtelecom_network.client[42] 	hdistance[42] 	1.8118852459016
scalar dtelecom_network.client[42] 	downloads[42] 	12200
scalar dtelecom_network.client[42] 	avg_time[42] 	0.016143041622
scalar dtelecom_network.client[45] 	hdistance[45] 	1.7167587776333
scalar dtelecom_network.client[45] 	downloads[45] 	12304
scalar dtelecom_network.client[45] 	avg_time[45] 	0.010694926383
scalar dtelecom_network.client[46] 	hdistance[46] 	1.7110510307536
scalar dtelecom_network.client[46] 	downloads[46] 	11836
scalar dtelecom_network.client[46] 	avg_time[46] 	0.016837736295
scalar dtelecom_network.client[48] 	hdistance[48] 	1.8114377974167
scalar dtelecom_network.client[48] 	downloads[48] 	11768
scalar dtelecom_network.client[48] 	avg_time[48] 	0.016209171889
scalar dtelecom_network.client[49] 	hdistance[49] 	1.7191471914719
scalar dtelecom_network.client[49] 	downloads[49] 	12195
scalar dtelecom_network.client[49] 	avg_time[49] 	0.014363673349
scalar dtelecom_network.client[50] 	hdistance[50] 	1.8277865383019
scalar dtelecom_network.client[50] 	downloads[50] 	12049
scalar dtelecom_network.client[50] 	avg_time[50] 	0.014626087436
scalar dtelecom_network.client[51] 	hdistance[51] 	1.6816597510373
scalar dtelecom_network.client[51] 	downloads[51] 	12050
scalar dtelecom_network.client[51] 	avg_time[51] 	0.01487943492
scalar dtelecom_network.client[53] 	hdistance[53] 	1.7168438266558
scalar dtelecom_network.client[53] 	downloads[53] 	12230
scalar dtelecom_network.client[53] 	avg_time[53] 	0.014153067762
scalar dtelecom_network.client[54] 	hdistance[54] 	1.6954360970761
scalar dtelecom_network.client[54] 	downloads[54] 	12073
scalar dtelecom_network.client[54] 	avg_time[54] 	0.015746742675
scalar dtelecom_network.client[55] 	hdistance[55] 	1.857877706795
scalar dtelecom_network.client[55] 	downloads[55] 	12053
scalar dtelecom_network.client[55] 	avg_time[55] 	0.020001176327
scalar dtelecom_network.client[56] 	hdistance[56] 	1.7327181208054
scalar dtelecom_network.client[56] 	downloads[56] 	11920
scalar dtelecom_network.client[56] 	avg_time[56] 	0.014154470418
scalar dtelecom_network.client[57] 	hdistance[57] 	1.8149087221095
scalar dtelecom_network.client[57] 	downloads[57] 	11832
scalar dtelecom_network.client[57] 	avg_time[57] 	0.013471750205
scalar dtelecom_network.client[58] 	hdistance[58] 	1.7623018494055
scalar dtelecom_network.client[58] 	downloads[58] 	12112
scalar dtelecom_network.client[58] 	avg_time[58] 	0.016317056018
scalar dtelecom_network.client[59] 	hdistance[59] 	1.7051922116825
scalar dtelecom_network.client[59] 	downloads[59] 	12018
scalar dtelecom_network.client[59] 	avg_time[59] 	0.053224107055
scalar dtelecom_network.client[62] 	hdistance[62] 	2.2532312505145
scalar dtelecom_network.client[62] 	downloads[62] 	12147
scalar dtelecom_network.client[62] 	avg_time[62] 	0.055130176862
scalar dtelecom_network.client[66] 	hdistance[66] 	1.9450924845859
scalar dtelecom_network.client[66] 	downloads[66] 	12002
scalar dtelecom_network.client[66] 	avg_time[66] 	0.087970779828
scalar dtelecom_network.client[67] 	hdistance[67] 	1.9357269878906
scalar dtelecom_network.client[67] 	downloads[67] 	11809
scalar dtelecom_network.client[67] 	avg_time[67] 	0.073151080938
