version 2
run General-52-20160824-03:11:42-9702
attr D ffc0.05
attr F spr
attr R lru
attr a 0.9
attr configname General
attr datetime 20160824-03:11:42
attr experiment General
attr inifile hw5115/scenario_C/omnetp.ini
attr iterationvars "$net=dtelecom, $rep=6, $a=0.9, $F=spr, $D=ffc0.05, $R=lru, $window=60, $variance=0.05, $mytime=600"
attr iterationvars2 "$net=dtelecom, $rep=6, $a=0.9, $F=spr, $D=ffc0.05, $R=lru, $window=60, $variance=0.05, $mytime=600, $repetition=0"
attr measurement "$net=dtelecom, $rep=6, $a=0.9, $F=spr, $D=ffc0.05, $R=lru, $window=60, $variance=0.05, $mytime=600"
attr mytime 600
attr net dtelecom
attr network networks.${net=dtelecom}_network
attr processid 9702
attr rep 6
attr repetition 0
attr replication #0
attr resultdir results
attr runnumber 52
attr seedset 6
attr variance 0.05
attr window 60

scalar . 	a 	0.9
scalar . 	mytime 	600
scalar . 	rep 	6
scalar . 	variance 	0.05
scalar . 	window 	60
scalar dtelecom_network.content_distribution 	repo-0 	40
scalar dtelecom_network.content_distribution 	repo-1 	19
scalar dtelecom_network.content_distribution 	repo-2 	52
scalar dtelecom_network.content_distribution 	repo-3 	31
scalar dtelecom_network.content_distribution 	repo-4 	66
scalar dtelecom_network.content_distribution 	repo-5 	56
scalar dtelecom_network.content_distribution 	repo-6 	22
scalar dtelecom_network.content_distribution 	repo-7 	34
scalar dtelecom_network.content_distribution 	repo-8 	5
scalar dtelecom_network.content_distribution 	repo-9 	10
scalar dtelecom_network.content_distribution 	repo-10 	50
scalar dtelecom_network.content_distribution 	repo-11 	39
scalar dtelecom_network.content_distribution 	repo-12 	15
scalar dtelecom_network.content_distribution 	repo-13 	9
scalar dtelecom_network.content_distribution 	repo-14 	4
scalar dtelecom_network.content_distribution 	repo-15 	53
scalar dtelecom_network.content_distribution 	client-0 	46
scalar dtelecom_network.content_distribution 	client-1 	30
scalar dtelecom_network.content_distribution 	client-2 	8
scalar dtelecom_network.content_distribution 	client-3 	49
scalar dtelecom_network.content_distribution 	client-4 	66
scalar dtelecom_network.content_distribution 	client-5 	58
scalar dtelecom_network.content_distribution 	client-6 	32
scalar dtelecom_network.content_distribution 	client-7 	40
scalar dtelecom_network.content_distribution 	client-8 	42
scalar dtelecom_network.content_distribution 	client-9 	45
scalar dtelecom_network.content_distribution 	client-10 	33
scalar dtelecom_network.content_distribution 	client-11 	28
scalar dtelecom_network.content_distribution 	client-12 	3
scalar dtelecom_network.content_distribution 	client-13 	57
scalar dtelecom_network.content_distribution 	client-14 	50
scalar dtelecom_network.content_distribution 	client-15 	17
scalar dtelecom_network.content_distribution 	client-16 	59
scalar dtelecom_network.content_distribution 	client-17 	48
scalar dtelecom_network.content_distribution 	client-18 	23
scalar dtelecom_network.content_distribution 	client-19 	22
scalar dtelecom_network.content_distribution 	client-20 	67
scalar dtelecom_network.content_distribution 	client-21 	62
scalar dtelecom_network.content_distribution 	client-22 	56
scalar dtelecom_network.content_distribution 	client-23 	55
scalar dtelecom_network.content_distribution 	client-24 	53
scalar dtelecom_network.content_distribution 	client-25 	36
scalar dtelecom_network.content_distribution 	client-26 	51
scalar dtelecom_network.content_distribution 	client-27 	37
scalar dtelecom_network.content_distribution 	client-28 	54
scalar dtelecom_network.content_distribution 	client-29 	4
scalar dtelecom_network.content_distribution 	client-30 	31
scalar dtelecom_network.content_distribution 	client-31 	9
scalar dtelecom_network.content_distribution 	repo-0_card 	6360
scalar dtelecom_network.content_distribution 	repo-0_price 	0
scalar dtelecom_network.content_distribution 	repo-1_card 	6226
scalar dtelecom_network.content_distribution 	repo-1_price 	0
scalar dtelecom_network.content_distribution 	repo-2_card 	6203
scalar dtelecom_network.content_distribution 	repo-2_price 	0
scalar dtelecom_network.content_distribution 	repo-3_card 	6282
scalar dtelecom_network.content_distribution 	repo-3_price 	0
scalar dtelecom_network.content_distribution 	repo-4_card 	6335
scalar dtelecom_network.content_distribution 	repo-4_price 	0
scalar dtelecom_network.content_distribution 	repo-5_card 	6116
scalar dtelecom_network.content_distribution 	repo-5_price 	0
scalar dtelecom_network.content_distribution 	repo-6_card 	6219
scalar dtelecom_network.content_distribution 	repo-6_price 	0
scalar dtelecom_network.content_distribution 	repo-7_card 	6216
scalar dtelecom_network.content_distribution 	repo-7_price 	0
scalar dtelecom_network.content_distribution 	repo-8_card 	6343
scalar dtelecom_network.content_distribution 	repo-8_price 	0
scalar dtelecom_network.content_distribution 	repo-9_card 	6167
scalar dtelecom_network.content_distribution 	repo-9_price 	0
scalar dtelecom_network.content_distribution 	repo-10_card 	6309
scalar dtelecom_network.content_distribution 	repo-10_price 	0
scalar dtelecom_network.content_distribution 	repo-11_card 	6206
scalar dtelecom_network.content_distribution 	repo-11_price 	0
scalar dtelecom_network.content_distribution 	repo-12_card 	6249
scalar dtelecom_network.content_distribution 	repo-12_price 	0
scalar dtelecom_network.content_distribution 	repo-13_card 	6264
scalar dtelecom_network.content_distribution 	repo-13_price 	0
scalar dtelecom_network.content_distribution 	repo-14_card 	6241
scalar dtelecom_network.content_distribution 	repo-14_price 	0
scalar dtelecom_network.content_distribution 	repo-15_card 	6264
scalar dtelecom_network.content_distribution 	repo-15_price 	0
scalar dtelecom_network.statistics 	stabilization_time 	31867.7
scalar dtelecom_network.statistics 	p_hit 	0.26222829876197
scalar dtelecom_network.statistics 	interests 	12788.617647059
scalar dtelecom_network.statistics 	data 	7149.7941176471
scalar dtelecom_network.statistics 	hdistance 	1.7782258438817
scalar dtelecom_network.statistics 	avg_time 	0.02750969594
scalar dtelecom_network.statistics 	downloads 	383411
scalar dtelecom_network.statistics 	total_cost 	0
scalar dtelecom_network.statistics 	total_replicas 	100000
scalar dtelecom_network.statistics 	inner_hit 	0.48971730075559
scalar dtelecom_network.node[0].core_layer 	interests[0] 	0
scalar dtelecom_network.node[0].core_layer 	data[0] 	0
scalar dtelecom_network.node[0].core_layer 	repo_int[0] 	195648
scalar dtelecom_network.node[0].content_store 	p_hit[0] 	-nan
scalar dtelecom_network.node[0].content_store 	hits[0] 	0
scalar dtelecom_network.node[0].content_store 	misses[0] 	0
scalar dtelecom_network.node[0].content_store 	decision_yes[0] 	0
scalar dtelecom_network.node[0].content_store 	decision_no[0] 	0
scalar dtelecom_network.node[0].content_store 	decision_ratio[0] 	0
scalar dtelecom_network.node[1].core_layer 	interests[1] 	177795
scalar dtelecom_network.node[1].core_layer 	data[1] 	165115
scalar dtelecom_network.node[1].content_store 	p_hit[1] 	0.070963750386681
scalar dtelecom_network.node[1].content_store 	hits[1] 	12617
scalar dtelecom_network.node[1].content_store 	misses[1] 	165178
scalar dtelecom_network.node[1].content_store 	decision_yes[1] 	117
scalar dtelecom_network.node[1].content_store 	decision_no[1] 	164998
scalar dtelecom_network.node[1].content_store 	decision_ratio[1] 	0.00070859703842776
scalar dtelecom_network.node[2].core_layer 	interests[2] 	2761
scalar dtelecom_network.node[2].core_layer 	data[2] 	2361
scalar dtelecom_network.node[2].content_store 	p_hit[2] 	0.14451285766027
scalar dtelecom_network.node[2].content_store 	hits[2] 	399
scalar dtelecom_network.node[2].content_store 	misses[2] 	2362
scalar dtelecom_network.node[2].content_store 	decision_yes[2] 	1
scalar dtelecom_network.node[2].content_store 	decision_no[2] 	2360
scalar dtelecom_network.node[2].content_store 	decision_ratio[2] 	0.00042354934349852
scalar dtelecom_network.node[3].core_layer 	interests[3] 	11857
scalar dtelecom_network.node[3].core_layer 	data[3] 	8459
scalar dtelecom_network.node[3].content_store 	p_hit[3] 	0.28649742767985
scalar dtelecom_network.node[3].content_store 	hits[3] 	3397
scalar dtelecom_network.node[3].content_store 	misses[3] 	8460
scalar dtelecom_network.node[3].content_store 	decision_yes[3] 	9
scalar dtelecom_network.node[3].content_store 	decision_no[3] 	8450
scalar dtelecom_network.node[3].content_store 	decision_ratio[3] 	0.0010639555503015
scalar dtelecom_network.node[4].core_layer 	interests[4] 	59850
scalar dtelecom_network.node[4].core_layer 	repo_load[4] 	13519
scalar dtelecom_network.node[4].core_layer 	data[4] 	36393
scalar dtelecom_network.node[4].content_store 	p_hit[4] 	0.1655806182122
scalar dtelecom_network.node[4].content_store 	hits[4] 	9910
scalar dtelecom_network.node[4].content_store 	misses[4] 	49940
scalar dtelecom_network.node[4].content_store 	decision_yes[4] 	40
scalar dtelecom_network.node[4].content_store 	decision_no[4] 	49872
scalar dtelecom_network.node[4].content_store 	decision_ratio[4] 	0.00080141048244911
scalar dtelecom_network.node[5].core_layer 	interests[5] 	17684
scalar dtelecom_network.node[5].core_layer 	repo_load[5] 	12266
scalar dtelecom_network.node[5].core_layer 	data[5] 	0
scalar dtelecom_network.node[5].content_store 	p_hit[5] 	0.30637864736485
scalar dtelecom_network.node[5].content_store 	hits[5] 	5418
scalar dtelecom_network.node[5].content_store 	misses[5] 	12266
scalar dtelecom_network.node[5].content_store 	decision_yes[5] 	31
scalar dtelecom_network.node[5].content_store 	decision_no[5] 	12235
scalar dtelecom_network.node[5].content_store 	decision_ratio[5] 	0.0025273112669167
scalar dtelecom_network.node[6].core_layer 	interests[6] 	0
scalar dtelecom_network.node[6].core_layer 	data[6] 	0
scalar dtelecom_network.node[6].content_store 	p_hit[6] 	-nan
scalar dtelecom_network.node[6].content_store 	hits[6] 	0
scalar dtelecom_network.node[6].content_store 	misses[6] 	0
scalar dtelecom_network.node[6].content_store 	decision_yes[6] 	0
scalar dtelecom_network.node[6].content_store 	decision_no[6] 	0
scalar dtelecom_network.node[6].content_store 	decision_ratio[6] 	0
scalar dtelecom_network.node[7].core_layer 	interests[7] 	0
scalar dtelecom_network.node[7].core_layer 	data[7] 	0
scalar dtelecom_network.node[7].content_store 	p_hit[7] 	-nan
scalar dtelecom_network.node[7].content_store 	hits[7] 	0
scalar dtelecom_network.node[7].content_store 	misses[7] 	0
scalar dtelecom_network.node[7].content_store 	decision_yes[7] 	0
scalar dtelecom_network.node[7].content_store 	decision_no[7] 	0
scalar dtelecom_network.node[7].content_store 	decision_ratio[7] 	0
scalar dtelecom_network.node[8].core_layer 	interests[8] 	12064
scalar dtelecom_network.node[8].core_layer 	data[8] 	8634
scalar dtelecom_network.node[8].content_store 	p_hit[8] 	0.28431697612732
scalar dtelecom_network.node[8].content_store 	hits[8] 	3430
scalar dtelecom_network.node[8].content_store 	misses[8] 	8634
scalar dtelecom_network.node[8].content_store 	decision_yes[8] 	4
scalar dtelecom_network.node[8].content_store 	decision_no[8] 	8630
scalar dtelecom_network.node[8].content_store 	decision_ratio[8] 	0.00046328468844105
scalar dtelecom_network.node[9].core_layer 	interests[9] 	30134
scalar dtelecom_network.node[9].core_layer 	repo_load[9] 	12525
scalar dtelecom_network.node[9].core_layer 	data[9] 	10189
scalar dtelecom_network.node[9].content_store 	p_hit[9] 	0.24616712019646
scalar dtelecom_network.node[9].content_store 	hits[9] 	7418
scalar dtelecom_network.node[9].content_store 	misses[9] 	22716
scalar dtelecom_network.node[9].content_store 	decision_yes[9] 	32
scalar dtelecom_network.node[9].content_store 	decision_no[9] 	22682
scalar dtelecom_network.node[9].content_store 	decision_ratio[9] 	0.0014088227524875
scalar dtelecom_network.node[10].core_layer 	interests[10] 	16749
scalar dtelecom_network.node[10].core_layer 	repo_load[10] 	11315
scalar dtelecom_network.node[10].core_layer 	data[10] 	0
scalar dtelecom_network.node[10].content_store 	p_hit[10] 	0.3244372798376
scalar dtelecom_network.node[10].content_store 	hits[10] 	5434
scalar dtelecom_network.node[10].content_store 	misses[10] 	11315
scalar dtelecom_network.node[10].content_store 	decision_yes[10] 	29
scalar dtelecom_network.node[10].content_store 	decision_no[10] 	11286
scalar dtelecom_network.node[10].content_store 	decision_ratio[10] 	0.0025629695095007
scalar dtelecom_network.node[11].core_layer 	interests[11] 	0
scalar dtelecom_network.node[11].core_layer 	data[11] 	0
scalar dtelecom_network.node[11].content_store 	p_hit[11] 	-nan
scalar dtelecom_network.node[11].content_store 	hits[11] 	0
scalar dtelecom_network.node[11].content_store 	misses[11] 	0
scalar dtelecom_network.node[11].content_store 	decision_yes[11] 	0
scalar dtelecom_network.node[11].content_store 	decision_no[11] 	0
scalar dtelecom_network.node[11].content_store 	decision_ratio[11] 	0
scalar dtelecom_network.node[12].core_layer 	interests[12] 	0
scalar dtelecom_network.node[12].core_layer 	data[12] 	0
scalar dtelecom_network.node[12].content_store 	p_hit[12] 	-nan
scalar dtelecom_network.node[12].content_store 	hits[12] 	0
scalar dtelecom_network.node[12].content_store 	misses[12] 	0
scalar dtelecom_network.node[12].content_store 	decision_yes[12] 	0
scalar dtelecom_network.node[12].content_store 	decision_no[12] 	0
scalar dtelecom_network.node[12].content_store 	decision_ratio[12] 	0
scalar dtelecom_network.node[13].core_layer 	interests[13] 	0
scalar dtelecom_network.node[13].core_layer 	data[13] 	0
scalar dtelecom_network.node[13].content_store 	p_hit[13] 	-nan
scalar dtelecom_network.node[13].content_store 	hits[13] 	0
scalar dtelecom_network.node[13].content_store 	misses[13] 	0
scalar dtelecom_network.node[13].content_store 	decision_yes[13] 	0
scalar dtelecom_network.node[13].content_store 	decision_no[13] 	0
scalar dtelecom_network.node[13].content_store 	decision_ratio[13] 	0
scalar dtelecom_network.node[14].core_layer 	interests[14] 	0
scalar dtelecom_network.node[14].core_layer 	data[14] 	0
scalar dtelecom_network.node[14].content_store 	p_hit[14] 	-nan
scalar dtelecom_network.node[14].content_store 	hits[14] 	0
scalar dtelecom_network.node[14].content_store 	misses[14] 	0
scalar dtelecom_network.node[14].content_store 	decision_yes[14] 	0
scalar dtelecom_network.node[14].content_store 	decision_no[14] 	0
scalar dtelecom_network.node[14].content_store 	decision_ratio[14] 	0
scalar dtelecom_network.node[15].core_layer 	interests[15] 	16099
scalar dtelecom_network.node[15].core_layer 	repo_load[15] 	11567
scalar dtelecom_network.node[15].core_layer 	data[15] 	0
scalar dtelecom_network.node[15].content_store 	p_hit[15] 	0.28150816820921
scalar dtelecom_network.node[15].content_store 	hits[15] 	4532
scalar dtelecom_network.node[15].content_store 	misses[15] 	11567
scalar dtelecom_network.node[15].content_store 	decision_yes[15] 	32
scalar dtelecom_network.node[15].content_store 	decision_no[15] 	11535
scalar dtelecom_network.node[15].content_store 	decision_ratio[15] 	0.0027664908792254
scalar dtelecom_network.node[16].core_layer 	interests[16] 	0
scalar dtelecom_network.node[16].core_layer 	data[16] 	0
scalar dtelecom_network.node[16].content_store 	p_hit[16] 	-nan
scalar dtelecom_network.node[16].content_store 	hits[16] 	0
scalar dtelecom_network.node[16].content_store 	misses[16] 	0
scalar dtelecom_network.node[16].content_store 	decision_yes[16] 	0
scalar dtelecom_network.node[16].content_store 	decision_no[16] 	0
scalar dtelecom_network.node[16].content_store 	decision_ratio[16] 	0
scalar dtelecom_network.node[17].core_layer 	interests[17] 	13166
scalar dtelecom_network.node[17].core_layer 	data[17] 	9768
scalar dtelecom_network.node[17].content_store 	p_hit[17] 	0.25793711073978
scalar dtelecom_network.node[17].content_store 	hits[17] 	3396
scalar dtelecom_network.node[17].content_store 	misses[17] 	9770
scalar dtelecom_network.node[17].content_store 	decision_yes[17] 	3
scalar dtelecom_network.node[17].content_store 	decision_no[17] 	9765
scalar dtelecom_network.node[17].content_store 	decision_ratio[17] 	0.00030712530712531
scalar dtelecom_network.node[18].core_layer 	interests[18] 	0
scalar dtelecom_network.node[18].core_layer 	data[18] 	0
scalar dtelecom_network.node[18].content_store 	p_hit[18] 	-nan
scalar dtelecom_network.node[18].content_store 	hits[18] 	0
scalar dtelecom_network.node[18].content_store 	misses[18] 	0
scalar dtelecom_network.node[18].content_store 	decision_yes[18] 	0
scalar dtelecom_network.node[18].content_store 	decision_no[18] 	0
scalar dtelecom_network.node[18].content_store 	decision_ratio[18] 	0
scalar dtelecom_network.node[19].core_layer 	interests[19] 	16513
scalar dtelecom_network.node[19].core_layer 	repo_load[19] 	11835
scalar dtelecom_network.node[19].core_layer 	data[19] 	0
scalar dtelecom_network.node[19].content_store 	p_hit[19] 	0.28329195179555
scalar dtelecom_network.node[19].content_store 	hits[19] 	4678
scalar dtelecom_network.node[19].content_store 	misses[19] 	11835
scalar dtelecom_network.node[19].content_store 	decision_yes[19] 	30
scalar dtelecom_network.node[19].content_store 	decision_no[19] 	11805
scalar dtelecom_network.node[19].content_store 	decision_ratio[19] 	0.0025348542458809
scalar dtelecom_network.node[20].core_layer 	interests[20] 	0
scalar dtelecom_network.node[20].core_layer 	data[20] 	0
scalar dtelecom_network.node[20].content_store 	p_hit[20] 	-nan
scalar dtelecom_network.node[20].content_store 	hits[20] 	0
scalar dtelecom_network.node[20].content_store 	misses[20] 	0
scalar dtelecom_network.node[20].content_store 	decision_yes[20] 	0
scalar dtelecom_network.node[20].content_store 	decision_no[20] 	0
scalar dtelecom_network.node[20].content_store 	decision_ratio[20] 	0
scalar dtelecom_network.node[21].core_layer 	interests[21] 	0
scalar dtelecom_network.node[21].core_layer 	data[21] 	0
scalar dtelecom_network.node[21].content_store 	p_hit[21] 	-nan
scalar dtelecom_network.node[21].content_store 	hits[21] 	0
scalar dtelecom_network.node[21].content_store 	misses[21] 	0
scalar dtelecom_network.node[21].content_store 	decision_yes[21] 	0
scalar dtelecom_network.node[21].content_store 	decision_no[21] 	0
scalar dtelecom_network.node[21].content_store 	decision_ratio[21] 	0
scalar dtelecom_network.node[22].core_layer 	interests[22] 	27926
scalar dtelecom_network.node[22].core_layer 	repo_load[22] 	12216
scalar dtelecom_network.node[22].core_layer 	data[22] 	9061
scalar dtelecom_network.node[22].content_store 	p_hit[22] 	0.23802191506123
scalar dtelecom_network.node[22].content_store 	hits[22] 	6647
scalar dtelecom_network.node[22].content_store 	misses[22] 	21279
scalar dtelecom_network.node[22].content_store 	decision_yes[22] 	24
scalar dtelecom_network.node[22].content_store 	decision_no[22] 	21253
scalar dtelecom_network.node[22].content_store 	decision_ratio[22] 	0.0011279785684072
scalar dtelecom_network.node[23].core_layer 	interests[23] 	22242
scalar dtelecom_network.node[23].core_layer 	data[23] 	18552
scalar dtelecom_network.node[23].content_store 	p_hit[23] 	0.16581242694002
scalar dtelecom_network.node[23].content_store 	hits[23] 	3688
scalar dtelecom_network.node[23].content_store 	misses[23] 	18554
scalar dtelecom_network.node[23].content_store 	decision_yes[23] 	13
scalar dtelecom_network.node[23].content_store 	decision_no[23] 	18539
scalar dtelecom_network.node[23].content_store 	decision_ratio[23] 	0.00070073307460112
scalar dtelecom_network.node[24].core_layer 	interests[24] 	0
scalar dtelecom_network.node[24].core_layer 	data[24] 	0
scalar dtelecom_network.node[24].content_store 	p_hit[24] 	-nan
scalar dtelecom_network.node[24].content_store 	hits[24] 	0
scalar dtelecom_network.node[24].content_store 	misses[24] 	0
scalar dtelecom_network.node[24].content_store 	decision_yes[24] 	0
scalar dtelecom_network.node[24].content_store 	decision_no[24] 	0
scalar dtelecom_network.node[24].content_store 	decision_ratio[24] 	0
scalar dtelecom_network.node[25].core_layer 	interests[25] 	0
scalar dtelecom_network.node[25].core_layer 	data[25] 	0
scalar dtelecom_network.node[25].content_store 	p_hit[25] 	-nan
scalar dtelecom_network.node[25].content_store 	hits[25] 	0
scalar dtelecom_network.node[25].content_store 	misses[25] 	0
scalar dtelecom_network.node[25].content_store 	decision_yes[25] 	0
scalar dtelecom_network.node[25].content_store 	decision_no[25] 	0
scalar dtelecom_network.node[25].content_store 	decision_ratio[25] 	0
scalar dtelecom_network.node[26].core_layer 	interests[26] 	531
scalar dtelecom_network.node[26].core_layer 	data[26] 	331
scalar dtelecom_network.node[26].content_store 	p_hit[26] 	0.37664783427495
scalar dtelecom_network.node[26].content_store 	hits[26] 	200
scalar dtelecom_network.node[26].content_store 	misses[26] 	331
scalar dtelecom_network.node[26].content_store 	decision_yes[26] 	1
scalar dtelecom_network.node[26].content_store 	decision_no[26] 	330
scalar dtelecom_network.node[26].content_store 	decision_ratio[26] 	0.0030211480362538
scalar dtelecom_network.node[27].core_layer 	interests[27] 	0
scalar dtelecom_network.node[27].core_layer 	data[27] 	0
scalar dtelecom_network.node[27].content_store 	p_hit[27] 	-nan
scalar dtelecom_network.node[27].content_store 	hits[27] 	0
scalar dtelecom_network.node[27].content_store 	misses[27] 	0
scalar dtelecom_network.node[27].content_store 	decision_yes[27] 	0
scalar dtelecom_network.node[27].content_store 	decision_no[27] 	0
scalar dtelecom_network.node[27].content_store 	decision_ratio[27] 	0
scalar dtelecom_network.node[28].core_layer 	interests[28] 	12010
scalar dtelecom_network.node[28].core_layer 	data[28] 	8653
scalar dtelecom_network.node[28].content_store 	p_hit[28] 	0.27951706910908
scalar dtelecom_network.node[28].content_store 	hits[28] 	3357
scalar dtelecom_network.node[28].content_store 	misses[28] 	8653
scalar dtelecom_network.node[28].content_store 	decision_yes[28] 	5
scalar dtelecom_network.node[28].content_store 	decision_no[28] 	8648
scalar dtelecom_network.node[28].content_store 	decision_ratio[28] 	0.00057783427712932
scalar dtelecom_network.node[29].core_layer 	interests[29] 	0
scalar dtelecom_network.node[29].core_layer 	data[29] 	0
scalar dtelecom_network.node[29].content_store 	p_hit[29] 	-nan
scalar dtelecom_network.node[29].content_store 	hits[29] 	0
scalar dtelecom_network.node[29].content_store 	misses[29] 	0
scalar dtelecom_network.node[29].content_store 	decision_yes[29] 	0
scalar dtelecom_network.node[29].content_store 	decision_no[29] 	0
scalar dtelecom_network.node[29].content_store 	decision_ratio[29] 	0
scalar dtelecom_network.node[30].core_layer 	interests[30] 	12042
scalar dtelecom_network.node[30].core_layer 	data[30] 	8594
scalar dtelecom_network.node[30].content_store 	p_hit[30] 	0.28649725959143
scalar dtelecom_network.node[30].content_store 	hits[30] 	3450
scalar dtelecom_network.node[30].content_store 	misses[30] 	8592
scalar dtelecom_network.node[30].content_store 	decision_yes[30] 	8
scalar dtelecom_network.node[30].content_store 	decision_no[30] 	8586
scalar dtelecom_network.node[30].content_store 	decision_ratio[30] 	0.00093088201070514
scalar dtelecom_network.node[31].core_layer 	interests[31] 	28352
scalar dtelecom_network.node[31].core_layer 	repo_load[31] 	12190
scalar dtelecom_network.node[31].core_layer 	data[31] 	9161
scalar dtelecom_network.node[31].content_store 	p_hit[31] 	0.24696670428894
scalar dtelecom_network.node[31].content_store 	hits[31] 	7002
scalar dtelecom_network.node[31].content_store 	misses[31] 	21350
scalar dtelecom_network.node[31].content_store 	decision_yes[31] 	29
scalar dtelecom_network.node[31].content_store 	decision_no[31] 	21322
scalar dtelecom_network.node[31].content_store 	decision_ratio[31] 	0.0013582501990539
scalar dtelecom_network.node[32].core_layer 	interests[32] 	12005
scalar dtelecom_network.node[32].core_layer 	data[32] 	8711
scalar dtelecom_network.node[32].content_store 	p_hit[32] 	0.27430237401083
scalar dtelecom_network.node[32].content_store 	hits[32] 	3293
scalar dtelecom_network.node[32].content_store 	misses[32] 	8712
scalar dtelecom_network.node[32].content_store 	decision_yes[32] 	6
scalar dtelecom_network.node[32].content_store 	decision_no[32] 	8705
scalar dtelecom_network.node[32].content_store 	decision_ratio[32] 	0.00068878429571806
scalar dtelecom_network.node[33].core_layer 	interests[33] 	12019
scalar dtelecom_network.node[33].core_layer 	data[33] 	8620
scalar dtelecom_network.node[33].content_store 	p_hit[33] 	0.28263582660787
scalar dtelecom_network.node[33].content_store 	hits[33] 	3397
scalar dtelecom_network.node[33].content_store 	misses[33] 	8622
scalar dtelecom_network.node[33].content_store 	decision_yes[33] 	7
scalar dtelecom_network.node[33].content_store 	decision_no[33] 	8613
scalar dtelecom_network.node[33].content_store 	decision_ratio[33] 	0.00081206496519722
scalar dtelecom_network.node[34].core_layer 	interests[34] 	16868
scalar dtelecom_network.node[34].core_layer 	repo_load[34] 	11859
scalar dtelecom_network.node[34].core_layer 	data[34] 	0
scalar dtelecom_network.node[34].content_store 	p_hit[34] 	0.29695281005454
scalar dtelecom_network.node[34].content_store 	hits[34] 	5009
scalar dtelecom_network.node[34].content_store 	misses[34] 	11859
scalar dtelecom_network.node[34].content_store 	decision_yes[34] 	30
scalar dtelecom_network.node[34].content_store 	decision_no[34] 	11829
scalar dtelecom_network.node[34].content_store 	decision_ratio[34] 	0.0025297242600557
scalar dtelecom_network.node[35].core_layer 	interests[35] 	0
scalar dtelecom_network.node[35].core_layer 	data[35] 	0
scalar dtelecom_network.node[35].content_store 	p_hit[35] 	-nan
scalar dtelecom_network.node[35].content_store 	hits[35] 	0
scalar dtelecom_network.node[35].content_store 	misses[35] 	0
scalar dtelecom_network.node[35].content_store 	decision_yes[35] 	0
scalar dtelecom_network.node[35].content_store 	decision_no[35] 	0
scalar dtelecom_network.node[35].content_store 	decision_ratio[35] 	0
scalar dtelecom_network.node[36].core_layer 	interests[36] 	11846
scalar dtelecom_network.node[36].core_layer 	data[36] 	8406
scalar dtelecom_network.node[36].content_store 	p_hit[36] 	0.29039338173223
scalar dtelecom_network.node[36].content_store 	hits[36] 	3440
scalar dtelecom_network.node[36].content_store 	misses[36] 	8406
scalar dtelecom_network.node[36].content_store 	decision_yes[36] 	9
scalar dtelecom_network.node[36].content_store 	decision_no[36] 	8397
scalar dtelecom_network.node[36].content_store 	decision_ratio[36] 	0.0010706638115632
scalar dtelecom_network.node[37].core_layer 	interests[37] 	12069
scalar dtelecom_network.node[37].core_layer 	data[37] 	8668
scalar dtelecom_network.node[37].content_store 	p_hit[37] 	0.2816306239125
scalar dtelecom_network.node[37].content_store 	hits[37] 	3399
scalar dtelecom_network.node[37].content_store 	misses[37] 	8670
scalar dtelecom_network.node[37].content_store 	decision_yes[37] 	5
scalar dtelecom_network.node[37].content_store 	decision_no[37] 	8663
scalar dtelecom_network.node[37].content_store 	decision_ratio[37] 	0.00057683433317951
scalar dtelecom_network.node[38].core_layer 	interests[38] 	0
scalar dtelecom_network.node[38].core_layer 	data[38] 	0
scalar dtelecom_network.node[38].content_store 	p_hit[38] 	-nan
scalar dtelecom_network.node[38].content_store 	hits[38] 	0
scalar dtelecom_network.node[38].content_store 	misses[38] 	0
scalar dtelecom_network.node[38].content_store 	decision_yes[38] 	0
scalar dtelecom_network.node[38].content_store 	decision_no[38] 	0
scalar dtelecom_network.node[38].content_store 	decision_ratio[38] 	0
scalar dtelecom_network.node[39].core_layer 	interests[39] 	17081
scalar dtelecom_network.node[39].core_layer 	repo_load[39] 	12353
scalar dtelecom_network.node[39].core_layer 	data[39] 	0
scalar dtelecom_network.node[39].content_store 	p_hit[39] 	0.2767987822727
scalar dtelecom_network.node[39].content_store 	hits[39] 	4728
scalar dtelecom_network.node[39].content_store 	misses[39] 	12353
scalar dtelecom_network.node[39].content_store 	decision_yes[39] 	35
scalar dtelecom_network.node[39].content_store 	decision_no[39] 	12318
scalar dtelecom_network.node[39].content_store 	decision_ratio[39] 	0.0028333198413341
scalar dtelecom_network.node[40].core_layer 	interests[40] 	28774
scalar dtelecom_network.node[40].core_layer 	repo_load[40] 	13049
scalar dtelecom_network.node[40].core_layer 	data[40] 	9095
scalar dtelecom_network.node[40].content_store 	p_hit[40] 	0.23031208730104
scalar dtelecom_network.node[40].content_store 	hits[40] 	6627
scalar dtelecom_network.node[40].content_store 	misses[40] 	22147
scalar dtelecom_network.node[40].content_store 	decision_yes[40] 	26
scalar dtelecom_network.node[40].content_store 	decision_no[40] 	22118
scalar dtelecom_network.node[40].content_store 	decision_ratio[40] 	0.0011741329479769
scalar dtelecom_network.node[41].core_layer 	interests[41] 	0
scalar dtelecom_network.node[41].core_layer 	data[41] 	0
scalar dtelecom_network.node[41].content_store 	p_hit[41] 	-nan
scalar dtelecom_network.node[41].content_store 	hits[41] 	0
scalar dtelecom_network.node[41].content_store 	misses[41] 	0
scalar dtelecom_network.node[41].content_store 	decision_yes[41] 	0
scalar dtelecom_network.node[41].content_store 	decision_no[41] 	0
scalar dtelecom_network.node[41].content_store 	decision_ratio[41] 	0
scalar dtelecom_network.node[42].core_layer 	interests[42] 	12025
scalar dtelecom_network.node[42].core_layer 	data[42] 	8677
scalar dtelecom_network.node[42].content_store 	p_hit[42] 	0.27850311850312
scalar dtelecom_network.node[42].content_store 	hits[42] 	3349
scalar dtelecom_network.node[42].content_store 	misses[42] 	8676
scalar dtelecom_network.node[42].content_store 	decision_yes[42] 	3
scalar dtelecom_network.node[42].content_store 	decision_no[42] 	8674
scalar dtelecom_network.node[42].content_store 	decision_ratio[42] 	0.00034574161576582
scalar dtelecom_network.node[43].core_layer 	interests[43] 	0
scalar dtelecom_network.node[43].core_layer 	data[43] 	0
scalar dtelecom_network.node[43].content_store 	p_hit[43] 	-nan
scalar dtelecom_network.node[43].content_store 	hits[43] 	0
scalar dtelecom_network.node[43].content_store 	misses[43] 	0
scalar dtelecom_network.node[43].content_store 	decision_yes[43] 	0
scalar dtelecom_network.node[43].content_store 	decision_no[43] 	0
scalar dtelecom_network.node[43].content_store 	decision_ratio[43] 	0
scalar dtelecom_network.node[44].core_layer 	interests[44] 	0
scalar dtelecom_network.node[44].core_layer 	data[44] 	0
scalar dtelecom_network.node[44].content_store 	p_hit[44] 	-nan
scalar dtelecom_network.node[44].content_store 	hits[44] 	0
scalar dtelecom_network.node[44].content_store 	misses[44] 	0
scalar dtelecom_network.node[44].content_store 	decision_yes[44] 	0
scalar dtelecom_network.node[44].content_store 	decision_no[44] 	0
scalar dtelecom_network.node[44].content_store 	decision_ratio[44] 	0
scalar dtelecom_network.node[45].core_layer 	interests[45] 	11891
scalar dtelecom_network.node[45].core_layer 	data[45] 	8495
scalar dtelecom_network.node[45].content_store 	p_hit[45] 	0.28567824405012
scalar dtelecom_network.node[45].content_store 	hits[45] 	3397
scalar dtelecom_network.node[45].content_store 	misses[45] 	8494
scalar dtelecom_network.node[45].content_store 	decision_yes[45] 	9
scalar dtelecom_network.node[45].content_store 	decision_no[45] 	8486
scalar dtelecom_network.node[45].content_store 	decision_ratio[45] 	0.0010594467333726
scalar dtelecom_network.node[46].core_layer 	interests[46] 	11794
scalar dtelecom_network.node[46].core_layer 	data[46] 	8533
scalar dtelecom_network.node[46].content_store 	p_hit[46] 	0.2764117347804
scalar dtelecom_network.node[46].content_store 	hits[46] 	3260
scalar dtelecom_network.node[46].content_store 	misses[46] 	8534
scalar dtelecom_network.node[46].content_store 	decision_yes[46] 	7
scalar dtelecom_network.node[46].content_store 	decision_no[46] 	8526
scalar dtelecom_network.node[46].content_store 	decision_ratio[46] 	0.00082034454470878
scalar dtelecom_network.node[47].core_layer 	interests[47] 	0
scalar dtelecom_network.node[47].core_layer 	data[47] 	0
scalar dtelecom_network.node[47].content_store 	p_hit[47] 	-nan
scalar dtelecom_network.node[47].content_store 	hits[47] 	0
scalar dtelecom_network.node[47].content_store 	misses[47] 	0
scalar dtelecom_network.node[47].content_store 	decision_yes[47] 	0
scalar dtelecom_network.node[47].content_store 	decision_no[47] 	0
scalar dtelecom_network.node[47].content_store 	decision_ratio[47] 	0
scalar dtelecom_network.node[48].core_layer 	interests[48] 	11976
scalar dtelecom_network.node[48].core_layer 	data[48] 	8561
scalar dtelecom_network.node[48].content_store 	p_hit[48] 	0.28490313961256
scalar dtelecom_network.node[48].content_store 	hits[48] 	3412
scalar dtelecom_network.node[48].content_store 	misses[48] 	8564
scalar dtelecom_network.node[48].content_store 	decision_yes[48] 	8
scalar dtelecom_network.node[48].content_store 	decision_no[48] 	8553
scalar dtelecom_network.node[48].content_store 	decision_ratio[48] 	0.00093447027216447
scalar dtelecom_network.node[49].core_layer 	interests[49] 	11841
scalar dtelecom_network.node[49].core_layer 	data[49] 	8447
scalar dtelecom_network.node[49].content_store 	p_hit[49] 	0.28654674436281
scalar dtelecom_network.node[49].content_store 	hits[49] 	3393
scalar dtelecom_network.node[49].content_store 	misses[49] 	8448
scalar dtelecom_network.node[49].content_store 	decision_yes[49] 	5
scalar dtelecom_network.node[49].content_store 	decision_no[49] 	8442
scalar dtelecom_network.node[49].content_store 	decision_ratio[49] 	0.00059192612761927
scalar dtelecom_network.node[50].core_layer 	interests[50] 	28085
scalar dtelecom_network.node[50].core_layer 	repo_load[50] 	12613
scalar dtelecom_network.node[50].core_layer 	data[50] 	9154
scalar dtelecom_network.node[50].content_store 	p_hit[50] 	0.22503115542104
scalar dtelecom_network.node[50].content_store 	hits[50] 	6320
scalar dtelecom_network.node[50].content_store 	misses[50] 	21765
scalar dtelecom_network.node[50].content_store 	decision_yes[50] 	28
scalar dtelecom_network.node[50].content_store 	decision_no[50] 	21739
scalar dtelecom_network.node[50].content_store 	decision_ratio[50] 	0.0012863508981486
scalar dtelecom_network.node[51].core_layer 	interests[51] 	12054
scalar dtelecom_network.node[51].core_layer 	data[51] 	8701
scalar dtelecom_network.node[51].content_store 	p_hit[51] 	0.27816492450639
scalar dtelecom_network.node[51].content_store 	hits[51] 	3353
scalar dtelecom_network.node[51].content_store 	misses[51] 	8701
scalar dtelecom_network.node[51].content_store 	decision_yes[51] 	5
scalar dtelecom_network.node[51].content_store 	decision_no[51] 	8696
scalar dtelecom_network.node[51].content_store 	decision_ratio[51] 	0.00057464659234571
scalar dtelecom_network.node[52].core_layer 	interests[52] 	16874
scalar dtelecom_network.node[52].core_layer 	repo_load[52] 	11646
scalar dtelecom_network.node[52].core_layer 	data[52] 	0
scalar dtelecom_network.node[52].content_store 	p_hit[52] 	0.30982576745289
scalar dtelecom_network.node[52].content_store 	hits[52] 	5228
scalar dtelecom_network.node[52].content_store 	misses[52] 	11646
scalar dtelecom_network.node[52].content_store 	decision_yes[52] 	41
scalar dtelecom_network.node[52].content_store 	decision_no[52] 	11605
scalar dtelecom_network.node[52].content_store 	decision_ratio[52] 	0.0035205220676627
scalar dtelecom_network.node[53].core_layer 	interests[53] 	28461
scalar dtelecom_network.node[53].core_layer 	repo_load[53] 	12602
scalar dtelecom_network.node[53].core_layer 	data[53] 	9034
scalar dtelecom_network.node[53].content_store 	p_hit[53] 	0.23976669828889
scalar dtelecom_network.node[53].content_store 	hits[53] 	6824
scalar dtelecom_network.node[53].content_store 	misses[53] 	21637
scalar dtelecom_network.node[53].content_store 	decision_yes[53] 	30
scalar dtelecom_network.node[53].content_store 	decision_no[53] 	21606
scalar dtelecom_network.node[53].content_store 	decision_ratio[53] 	0.0013865779256794
scalar dtelecom_network.node[54].core_layer 	interests[54] 	11921
scalar dtelecom_network.node[54].core_layer 	data[54] 	8579
scalar dtelecom_network.node[54].content_store 	p_hit[54] 	0.28026172300981
scalar dtelecom_network.node[54].content_store 	hits[54] 	3341
scalar dtelecom_network.node[54].content_store 	misses[54] 	8580
scalar dtelecom_network.node[54].content_store 	decision_yes[54] 	8
scalar dtelecom_network.node[54].content_store 	decision_no[54] 	8571
scalar dtelecom_network.node[54].content_store 	decision_ratio[54] 	0.00093250961650542
scalar dtelecom_network.node[55].core_layer 	interests[55] 	11938
scalar dtelecom_network.node[55].core_layer 	data[55] 	8547
scalar dtelecom_network.node[55].content_store 	p_hit[55] 	0.28405092980399
scalar dtelecom_network.node[55].content_store 	hits[55] 	3391
scalar dtelecom_network.node[55].content_store 	misses[55] 	8547
scalar dtelecom_network.node[55].content_store 	decision_yes[55] 	9
scalar dtelecom_network.node[55].content_store 	decision_no[55] 	8538
scalar dtelecom_network.node[55].content_store 	decision_ratio[55] 	0.0010530010530011
scalar dtelecom_network.node[56].core_layer 	interests[56] 	27364
scalar dtelecom_network.node[56].core_layer 	repo_load[56] 	11915
scalar dtelecom_network.node[56].core_layer 	data[56] 	8971
scalar dtelecom_network.node[56].content_store 	p_hit[56] 	0.23662476246163
scalar dtelecom_network.node[56].content_store 	hits[56] 	6475
scalar dtelecom_network.node[56].content_store 	misses[56] 	20889
scalar dtelecom_network.node[56].content_store 	decision_yes[56] 	20
scalar dtelecom_network.node[56].content_store 	decision_no[56] 	20866
scalar dtelecom_network.node[56].content_store 	decision_ratio[56] 	0.00095757923968208
scalar dtelecom_network.node[57].core_layer 	interests[57] 	11837
scalar dtelecom_network.node[57].core_layer 	data[57] 	8561
scalar dtelecom_network.node[57].content_store 	p_hit[57] 	0.27675931401538
scalar dtelecom_network.node[57].content_store 	hits[57] 	3276
scalar dtelecom_network.node[57].content_store 	misses[57] 	8561
scalar dtelecom_network.node[57].content_store 	decision_yes[57] 	4
scalar dtelecom_network.node[57].content_store 	decision_no[57] 	8557
scalar dtelecom_network.node[57].content_store 	decision_ratio[57] 	0.00046723513608223
scalar dtelecom_network.node[58].core_layer 	interests[58] 	11818
scalar dtelecom_network.node[58].core_layer 	data[58] 	8528
scalar dtelecom_network.node[58].content_store 	p_hit[58] 	0.27838889829074
scalar dtelecom_network.node[58].content_store 	hits[58] 	3290
scalar dtelecom_network.node[58].content_store 	misses[58] 	8528
scalar dtelecom_network.node[58].content_store 	decision_yes[58] 	3
scalar dtelecom_network.node[58].content_store 	decision_no[58] 	8525
scalar dtelecom_network.node[58].content_store 	decision_ratio[58] 	0.00035178236397749
scalar dtelecom_network.node[59].core_layer 	interests[59] 	12018
scalar dtelecom_network.node[59].core_layer 	data[59] 	8662
scalar dtelecom_network.node[59].content_store 	p_hit[59] 	0.27916458645365
scalar dtelecom_network.node[59].content_store 	hits[59] 	3355
scalar dtelecom_network.node[59].content_store 	misses[59] 	8663
scalar dtelecom_network.node[59].content_store 	decision_yes[59] 	8
scalar dtelecom_network.node[59].content_store 	decision_no[59] 	8654
scalar dtelecom_network.node[59].content_store 	decision_ratio[59] 	0.00092357423227892
scalar dtelecom_network.node[60].core_layer 	interests[60] 	0
scalar dtelecom_network.node[60].core_layer 	data[60] 	0
scalar dtelecom_network.node[60].content_store 	p_hit[60] 	-nan
scalar dtelecom_network.node[60].content_store 	hits[60] 	0
scalar dtelecom_network.node[60].content_store 	misses[60] 	0
scalar dtelecom_network.node[60].content_store 	decision_yes[60] 	0
scalar dtelecom_network.node[60].content_store 	decision_no[60] 	0
scalar dtelecom_network.node[60].content_store 	decision_ratio[60] 	0
scalar dtelecom_network.node[61].core_layer 	interests[61] 	0
scalar dtelecom_network.node[61].core_layer 	data[61] 	0
scalar dtelecom_network.node[61].content_store 	p_hit[61] 	-nan
scalar dtelecom_network.node[61].content_store 	hits[61] 	0
scalar dtelecom_network.node[61].content_store 	misses[61] 	0
scalar dtelecom_network.node[61].content_store 	decision_yes[61] 	0
scalar dtelecom_network.node[61].content_store 	decision_no[61] 	0
scalar dtelecom_network.node[61].content_store 	decision_ratio[61] 	0
scalar dtelecom_network.node[62].core_layer 	interests[62] 	12028
scalar dtelecom_network.node[62].core_layer 	data[62] 	8597
scalar dtelecom_network.node[62].content_store 	p_hit[62] 	0.28525108081144
scalar dtelecom_network.node[62].content_store 	hits[62] 	3431
scalar dtelecom_network.node[62].content_store 	misses[62] 	8597
scalar dtelecom_network.node[62].content_store 	decision_yes[62] 	4
scalar dtelecom_network.node[62].content_store 	decision_no[62] 	8593
scalar dtelecom_network.node[62].content_store 	decision_ratio[62] 	0.0004652785855531
scalar dtelecom_network.node[63].core_layer 	interests[63] 	0
scalar dtelecom_network.node[63].core_layer 	data[63] 	0
scalar dtelecom_network.node[63].content_store 	p_hit[63] 	-nan
scalar dtelecom_network.node[63].content_store 	hits[63] 	0
scalar dtelecom_network.node[63].content_store 	misses[63] 	0
scalar dtelecom_network.node[63].content_store 	decision_yes[63] 	0
scalar dtelecom_network.node[63].content_store 	decision_no[63] 	0
scalar dtelecom_network.node[63].content_store 	decision_ratio[63] 	0
scalar dtelecom_network.node[64].core_layer 	interests[64] 	0
scalar dtelecom_network.node[64].core_layer 	data[64] 	0
scalar dtelecom_network.node[64].content_store 	p_hit[64] 	-nan
scalar dtelecom_network.node[64].content_store 	hits[64] 	0
scalar dtelecom_network.node[64].content_store 	misses[64] 	0
scalar dtelecom_network.node[64].content_store 	decision_yes[64] 	0
scalar dtelecom_network.node[64].content_store 	decision_no[64] 	0
scalar dtelecom_network.node[64].content_store 	decision_ratio[64] 	0
scalar dtelecom_network.node[65].core_layer 	interests[65] 	0
scalar dtelecom_network.node[65].core_layer 	data[65] 	0
scalar dtelecom_network.node[65].content_store 	p_hit[65] 	-nan
scalar dtelecom_network.node[65].content_store 	hits[65] 	0
scalar dtelecom_network.node[65].content_store 	misses[65] 	0
scalar dtelecom_network.node[65].content_store 	decision_yes[65] 	0
scalar dtelecom_network.node[65].content_store 	decision_no[65] 	0
scalar dtelecom_network.node[65].content_store 	decision_ratio[65] 	0
scalar dtelecom_network.node[66].core_layer 	interests[66] 	25146
scalar dtelecom_network.node[66].core_layer 	repo_load[66] 	12178
scalar dtelecom_network.node[66].core_layer 	data[66] 	8609
scalar dtelecom_network.node[66].content_store 	p_hit[66] 	0.17314881094409
scalar dtelecom_network.node[66].content_store 	hits[66] 	4354
scalar dtelecom_network.node[66].content_store 	misses[66] 	20792
scalar dtelecom_network.node[66].content_store 	decision_yes[66] 	14
scalar dtelecom_network.node[66].content_store 	decision_no[66] 	20773
scalar dtelecom_network.node[66].content_store 	decision_ratio[66] 	0.00067349785923895
scalar dtelecom_network.node[67].core_layer 	interests[67] 	12118
scalar dtelecom_network.node[67].core_layer 	data[67] 	8759
scalar dtelecom_network.node[67].content_store 	p_hit[67] 	0.27702591186664
scalar dtelecom_network.node[67].content_store 	hits[67] 	3357
scalar dtelecom_network.node[67].content_store 	misses[67] 	8761
scalar dtelecom_network.node[67].content_store 	decision_yes[67] 	4
scalar dtelecom_network.node[67].content_store 	decision_no[67] 	8755
scalar dtelecom_network.node[67].content_store 	decision_ratio[67] 	0.00045667313620276
scalar dtelecom_network.client[3] 	hdistance[3] 	1.3465755735493
scalar dtelecom_network.client[3] 	downloads[3] 	11856
scalar dtelecom_network.client[3] 	avg_time[3] 	0.018514314394
scalar dtelecom_network.client[4] 	hdistance[4] 	1.2912900228098
scalar dtelecom_network.client[4] 	downloads[4] 	11837
scalar dtelecom_network.client[4] 	avg_time[4] 	0.048843968845
scalar dtelecom_network.client[8] 	hdistance[8] 	1.7646717506631
scalar dtelecom_network.client[8] 	downloads[8] 	12064
scalar dtelecom_network.client[8] 	avg_time[8] 	0.020633948505
scalar dtelecom_network.client[9] 	hdistance[9] 	1.7275297247859
scalar dtelecom_network.client[9] 	downloads[9] 	12027
scalar dtelecom_network.client[9] 	avg_time[9] 	0.021215444434
scalar dtelecom_network.client[17] 	hdistance[17] 	1.6958399069999
scalar dtelecom_network.client[17] 	downloads[17] 	12043
scalar dtelecom_network.client[17] 	avg_time[17] 	0.018262890186
scalar dtelecom_network.client[22] 	hdistance[22] 	1.8581488933602
scalar dtelecom_network.client[22] 	downloads[22] 	11928
scalar dtelecom_network.client[22] 	avg_time[22] 	0.021874728821
scalar dtelecom_network.client[23] 	hdistance[23] 	1.609404752049
scalar dtelecom_network.client[23] 	downloads[23] 	12079
scalar dtelecom_network.client[23] 	avg_time[23] 	0.018495732844
scalar dtelecom_network.client[28] 	hdistance[28] 	1.8154038301415
scalar dtelecom_network.client[28] 	downloads[28] 	12010
scalar dtelecom_network.client[28] 	avg_time[28] 	0.020873053291
scalar dtelecom_network.client[30] 	hdistance[30] 	1.798156758552
scalar dtelecom_network.client[30] 	downloads[30] 	12044
scalar dtelecom_network.client[30] 	avg_time[30] 	0.019501427924
scalar dtelecom_network.client[31] 	hdistance[31] 	1.8300883507853
scalar dtelecom_network.client[31] 	downloads[31] 	12224
scalar dtelecom_network.client[31] 	avg_time[31] 	0.022490401547
scalar dtelecom_network.client[32] 	hdistance[32] 	1.8190603132289
scalar dtelecom_network.client[32] 	downloads[32] 	12004
scalar dtelecom_network.client[32] 	avg_time[32] 	0.01801576448
scalar dtelecom_network.client[33] 	hdistance[33] 	1.7136556544895
scalar dtelecom_network.client[33] 	downloads[33] 	12017
scalar dtelecom_network.client[33] 	avg_time[33] 	0.020392509657
scalar dtelecom_network.client[36] 	hdistance[36] 	1.7955427992571
scalar dtelecom_network.client[36] 	downloads[36] 	11846
scalar dtelecom_network.client[36] 	avg_time[36] 	0.019936466617
scalar dtelecom_network.client[37] 	hdistance[37] 	1.8176017237093
scalar dtelecom_network.client[37] 	downloads[37] 	12067
scalar dtelecom_network.client[37] 	avg_time[37] 	0.019455724822
scalar dtelecom_network.client[40] 	hdistance[40] 	1.7955133016429
scalar dtelecom_network.client[40] 	downloads[40] 	11991
scalar dtelecom_network.client[40] 	avg_time[40] 	0.022635420375
scalar dtelecom_network.client[42] 	hdistance[42] 	1.7782305005821
scalar dtelecom_network.client[42] 	downloads[42] 	12026
scalar dtelecom_network.client[42] 	avg_time[42] 	0.020784566857
scalar dtelecom_network.client[45] 	hdistance[45] 	1.7540363269425
scalar dtelecom_network.client[45] 	downloads[45] 	11892
scalar dtelecom_network.client[45] 	avg_time[45] 	0.019547162363
scalar dtelecom_network.client[46] 	hdistance[46] 	1.7848723819215
scalar dtelecom_network.client[46] 	downloads[46] 	11793
scalar dtelecom_network.client[46] 	avg_time[46] 	0.02190251558
scalar dtelecom_network.client[48] 	hdistance[48] 	1.798630251399
scalar dtelecom_network.client[48] 	downloads[48] 	11973
scalar dtelecom_network.client[48] 	avg_time[48] 	0.02044423871
scalar dtelecom_network.client[49] 	hdistance[49] 	1.8057432432432
scalar dtelecom_network.client[49] 	downloads[49] 	11840
scalar dtelecom_network.client[49] 	avg_time[49] 	0.019297401917
scalar dtelecom_network.client[50] 	hdistance[50] 	1.8392182624405
scalar dtelecom_network.client[50] 	downloads[50] 	12178
scalar dtelecom_network.client[50] 	avg_time[50] 	0.019831173705
scalar dtelecom_network.client[51] 	hdistance[51] 	1.8248714119794
scalar dtelecom_network.client[51] 	downloads[51] 	12054
scalar dtelecom_network.client[51] 	avg_time[51] 	0.020131540328
scalar dtelecom_network.client[53] 	hdistance[53] 	1.8473346124969
scalar dtelecom_network.client[53] 	downloads[53] 	11987
scalar dtelecom_network.client[53] 	avg_time[53] 	0.020709265396
scalar dtelecom_network.client[54] 	hdistance[54] 	1.7735738255034
scalar dtelecom_network.client[54] 	downloads[54] 	11920
scalar dtelecom_network.client[54] 	avg_time[54] 	0.021068515518
scalar dtelecom_network.client[55] 	hdistance[55] 	1.7230691908192
scalar dtelecom_network.client[55] 	downloads[55] 	11938
scalar dtelecom_network.client[55] 	avg_time[55] 	0.022703261559
scalar dtelecom_network.client[56] 	hdistance[56] 	1.8369138176043
scalar dtelecom_network.client[56] 	downloads[56] 	11963
scalar dtelecom_network.client[56] 	avg_time[56] 	0.020720157696
scalar dtelecom_network.client[57] 	hdistance[57] 	1.8163385993073
scalar dtelecom_network.client[57] 	downloads[57] 	11837
scalar dtelecom_network.client[57] 	avg_time[57] 	0.018975042229
scalar dtelecom_network.client[58] 	hdistance[58] 	1.8212895583009
scalar dtelecom_network.client[58] 	downloads[58] 	11818
scalar dtelecom_network.client[58] 	avg_time[58] 	0.021187230894
scalar dtelecom_network.client[59] 	hdistance[59] 	1.825330781393
scalar dtelecom_network.client[59] 	downloads[59] 	12017
scalar dtelecom_network.client[59] 	avg_time[59] 	0.061486484256
scalar dtelecom_network.client[62] 	hdistance[62] 	2.2718656468241
scalar dtelecom_network.client[62] 	downloads[62] 	12028
scalar dtelecom_network.client[62] 	avg_time[62] 	0.065166588487
scalar dtelecom_network.client[66] 	hdistance[66] 	1.8690178422545
scalar dtelecom_network.client[66] 	downloads[66] 	11994
scalar dtelecom_network.client[66] 	avg_time[66] 	0.085872766779
scalar dtelecom_network.client[67] 	hdistance[67] 	1.8544073951799
scalar dtelecom_network.client[67] 	downloads[67] 	12116
scalar dtelecom_network.client[67] 	avg_time[67] 	0.069340561078
