version 2
run General-5-20160830-17:41:42-19036
attr a 0.9
attr branch 3
attr cd ffc0.1
attr configname General
attr cr lru
attr datetime 20160830-17:41:42
attr experiment General
attr fsize 1
attr inifile hw5115/scenario_E/omnetp.ini
attr iterationvars "$name=tree, $levels=5, $branch=3, $un=00, $rep=1, $cd=ffc0.1, $cr=lru, $fsize=1, $a=0.9, $sl=spr, $ttl=1000, $variance=0.05"
attr iterationvars2 "$name=tree, $levels=5, $branch=3, $un=00, $rep=1, $cd=ffc0.1, $cr=lru, $fsize=1, $a=0.9, $sl=spr, $ttl=1000, $variance=0.05, $repetition=0"
attr levels 5
attr measurement "$name=tree, $levels=5, $branch=3, $un=00, $rep=1, $cd=ffc0.1, $cr=lru, $fsize=1, $a=0.9, $sl=spr, $ttl=1000, $variance=0.05"
attr name tree
attr network networks.${name}_${levels}_${branch}_u${un}_r${rep}_network
attr processid 19036
attr rep 1
attr repetition 0
attr replication #0
attr resultdir results
attr runnumber 5
attr seedset 1
attr sl spr
attr ttl 1000
attr un 00
attr variance 0.05

scalar . 	a 	0.9
scalar . 	branch 	3
scalar . 	fsize 	1
scalar . 	levels 	5
scalar . 	rep 	1
scalar . 	ttl 	1000
scalar . 	un 	00
scalar . 	variance 	0.05
scalar tree_5_3_u00_r1_network.content_distribution 	repo-0 	0
scalar tree_5_3_u00_r1_network.content_distribution 	client-0 	120
scalar tree_5_3_u00_r1_network.content_distribution 	client-1 	119
scalar tree_5_3_u00_r1_network.content_distribution 	client-2 	118
scalar tree_5_3_u00_r1_network.content_distribution 	client-3 	117
scalar tree_5_3_u00_r1_network.content_distribution 	client-4 	116
scalar tree_5_3_u00_r1_network.content_distribution 	client-5 	115
scalar tree_5_3_u00_r1_network.content_distribution 	client-6 	114
scalar tree_5_3_u00_r1_network.content_distribution 	client-7 	113
scalar tree_5_3_u00_r1_network.content_distribution 	client-8 	112
scalar tree_5_3_u00_r1_network.content_distribution 	client-9 	111
scalar tree_5_3_u00_r1_network.content_distribution 	client-10 	110
scalar tree_5_3_u00_r1_network.content_distribution 	client-11 	109
scalar tree_5_3_u00_r1_network.content_distribution 	client-12 	108
scalar tree_5_3_u00_r1_network.content_distribution 	client-13 	107
scalar tree_5_3_u00_r1_network.content_distribution 	client-14 	106
scalar tree_5_3_u00_r1_network.content_distribution 	client-15 	105
scalar tree_5_3_u00_r1_network.content_distribution 	client-16 	104
scalar tree_5_3_u00_r1_network.content_distribution 	client-17 	103
scalar tree_5_3_u00_r1_network.content_distribution 	client-18 	102
scalar tree_5_3_u00_r1_network.content_distribution 	client-19 	101
scalar tree_5_3_u00_r1_network.content_distribution 	client-20 	100
scalar tree_5_3_u00_r1_network.content_distribution 	client-21 	99
scalar tree_5_3_u00_r1_network.content_distribution 	client-22 	98
scalar tree_5_3_u00_r1_network.content_distribution 	client-23 	97
scalar tree_5_3_u00_r1_network.content_distribution 	client-24 	96
scalar tree_5_3_u00_r1_network.content_distribution 	client-25 	95
scalar tree_5_3_u00_r1_network.content_distribution 	client-26 	94
scalar tree_5_3_u00_r1_network.content_distribution 	client-27 	93
scalar tree_5_3_u00_r1_network.content_distribution 	client-28 	92
scalar tree_5_3_u00_r1_network.content_distribution 	client-29 	91
scalar tree_5_3_u00_r1_network.content_distribution 	client-30 	90
scalar tree_5_3_u00_r1_network.content_distribution 	client-31 	89
scalar tree_5_3_u00_r1_network.content_distribution 	client-32 	88
scalar tree_5_3_u00_r1_network.content_distribution 	client-33 	87
scalar tree_5_3_u00_r1_network.content_distribution 	client-34 	86
scalar tree_5_3_u00_r1_network.content_distribution 	client-35 	85
scalar tree_5_3_u00_r1_network.content_distribution 	client-36 	84
scalar tree_5_3_u00_r1_network.content_distribution 	client-37 	83
scalar tree_5_3_u00_r1_network.content_distribution 	client-38 	82
scalar tree_5_3_u00_r1_network.content_distribution 	client-39 	81
scalar tree_5_3_u00_r1_network.content_distribution 	client-40 	80
scalar tree_5_3_u00_r1_network.content_distribution 	client-41 	79
scalar tree_5_3_u00_r1_network.content_distribution 	client-42 	78
scalar tree_5_3_u00_r1_network.content_distribution 	client-43 	77
scalar tree_5_3_u00_r1_network.content_distribution 	client-44 	76
scalar tree_5_3_u00_r1_network.content_distribution 	client-45 	75
scalar tree_5_3_u00_r1_network.content_distribution 	client-46 	74
scalar tree_5_3_u00_r1_network.content_distribution 	client-47 	73
scalar tree_5_3_u00_r1_network.content_distribution 	client-48 	72
scalar tree_5_3_u00_r1_network.content_distribution 	client-49 	71
scalar tree_5_3_u00_r1_network.content_distribution 	client-50 	70
scalar tree_5_3_u00_r1_network.content_distribution 	client-51 	69
scalar tree_5_3_u00_r1_network.content_distribution 	client-52 	68
scalar tree_5_3_u00_r1_network.content_distribution 	client-53 	67
scalar tree_5_3_u00_r1_network.content_distribution 	client-54 	66
scalar tree_5_3_u00_r1_network.content_distribution 	client-55 	65
scalar tree_5_3_u00_r1_network.content_distribution 	client-56 	64
scalar tree_5_3_u00_r1_network.content_distribution 	client-57 	63
scalar tree_5_3_u00_r1_network.content_distribution 	client-58 	62
scalar tree_5_3_u00_r1_network.content_distribution 	client-59 	61
scalar tree_5_3_u00_r1_network.content_distribution 	client-60 	60
scalar tree_5_3_u00_r1_network.content_distribution 	client-61 	59
scalar tree_5_3_u00_r1_network.content_distribution 	client-62 	58
scalar tree_5_3_u00_r1_network.content_distribution 	client-63 	57
scalar tree_5_3_u00_r1_network.content_distribution 	client-64 	56
scalar tree_5_3_u00_r1_network.content_distribution 	client-65 	55
scalar tree_5_3_u00_r1_network.content_distribution 	client-66 	54
scalar tree_5_3_u00_r1_network.content_distribution 	client-67 	53
scalar tree_5_3_u00_r1_network.content_distribution 	client-68 	52
scalar tree_5_3_u00_r1_network.content_distribution 	client-69 	51
scalar tree_5_3_u00_r1_network.content_distribution 	client-70 	50
scalar tree_5_3_u00_r1_network.content_distribution 	client-71 	49
scalar tree_5_3_u00_r1_network.content_distribution 	client-72 	48
scalar tree_5_3_u00_r1_network.content_distribution 	client-73 	47
scalar tree_5_3_u00_r1_network.content_distribution 	client-74 	46
scalar tree_5_3_u00_r1_network.content_distribution 	client-75 	45
scalar tree_5_3_u00_r1_network.content_distribution 	client-76 	44
scalar tree_5_3_u00_r1_network.content_distribution 	client-77 	43
scalar tree_5_3_u00_r1_network.content_distribution 	client-78 	42
scalar tree_5_3_u00_r1_network.content_distribution 	client-79 	41
scalar tree_5_3_u00_r1_network.content_distribution 	client-80 	40
scalar tree_5_3_u00_r1_network.content_distribution 	repo-0_card 	100000
scalar tree_5_3_u00_r1_network.content_distribution 	repo-0_price 	0
scalar tree_5_3_u00_r1_network.statistics 	stabilization_time 	2011.8
scalar tree_5_3_u00_r1_network.statistics 	p_hit 	0.19460121169143
scalar tree_5_3_u00_r1_network.statistics 	interests 	29948.231404959
scalar tree_5_3_u00_r1_network.statistics 	data 	21913.561983471
scalar tree_5_3_u00_r1_network.statistics 	hdistance 	3.3532351595913
scalar tree_5_3_u00_r1_network.statistics 	avg_time 	0.005454728907
scalar tree_5_3_u00_r1_network.statistics 	downloads 	972203
scalar tree_5_3_u00_r1_network.statistics 	total_cost 	0
scalar tree_5_3_u00_r1_network.statistics 	total_replicas 	100000
scalar tree_5_3_u00_r1_network.statistics 	inner_hit 	0.37419962703263
scalar tree_5_3_u00_r1_network.node[0].core_layer 	interests[0] 	622710
scalar tree_5_3_u00_r1_network.node[0].core_layer 	repo_load[0] 	608405
scalar tree_5_3_u00_r1_network.node[0].core_layer 	data[0] 	0
scalar tree_5_3_u00_r1_network.node[0].core_layer 	repo_int[0] 	608405
scalar tree_5_3_u00_r1_network.node[0].content_store 	p_hit[0] 	0.022972170030994
scalar tree_5_3_u00_r1_network.node[0].content_store 	hits[0] 	14305
scalar tree_5_3_u00_r1_network.node[0].content_store 	misses[0] 	608405
scalar tree_5_3_u00_r1_network.node[0].content_store 	decision_yes[0] 	366
scalar tree_5_3_u00_r1_network.node[0].content_store 	decision_no[0] 	608039
scalar tree_5_3_u00_r1_network.node[0].content_store 	decision_ratio[0] 	0.00060157296537668
scalar tree_5_3_u00_r1_network.node[1].core_layer 	interests[1] 	213753
scalar tree_5_3_u00_r1_network.node[1].core_layer 	data[1] 	207224
scalar tree_5_3_u00_r1_network.node[1].content_store 	p_hit[1] 	0.030511852465229
scalar tree_5_3_u00_r1_network.node[1].content_store 	hits[1] 	6522
scalar tree_5_3_u00_r1_network.node[1].content_store 	misses[1] 	207231
scalar tree_5_3_u00_r1_network.node[1].content_store 	decision_yes[1] 	124
scalar tree_5_3_u00_r1_network.node[1].content_store 	decision_no[1] 	207100
scalar tree_5_3_u00_r1_network.node[1].content_store 	decision_ratio[1] 	0.00059838628730263
scalar tree_5_3_u00_r1_network.node[2].core_layer 	interests[2] 	214708
scalar tree_5_3_u00_r1_network.node[2].core_layer 	data[2] 	208095
scalar tree_5_3_u00_r1_network.node[2].content_store 	p_hit[2] 	0.030776682750526
scalar tree_5_3_u00_r1_network.node[2].content_store 	hits[2] 	6608
scalar tree_5_3_u00_r1_network.node[2].content_store 	misses[2] 	208100
scalar tree_5_3_u00_r1_network.node[2].content_store 	decision_yes[2] 	128
scalar tree_5_3_u00_r1_network.node[2].content_store 	decision_no[2] 	207967
scalar tree_5_3_u00_r1_network.node[2].content_store 	decision_ratio[2] 	0.00061510367860833
scalar tree_5_3_u00_r1_network.node[3].core_layer 	interests[3] 	213903
scalar tree_5_3_u00_r1_network.node[3].core_layer 	data[3] 	207392
scalar tree_5_3_u00_r1_network.node[3].content_store 	p_hit[3] 	0.030425005726895
scalar tree_5_3_u00_r1_network.node[3].content_store 	hits[3] 	6508
scalar tree_5_3_u00_r1_network.node[3].content_store 	misses[3] 	207395
scalar tree_5_3_u00_r1_network.node[3].content_store 	decision_yes[3] 	132
scalar tree_5_3_u00_r1_network.node[3].content_store 	decision_no[3] 	207260
scalar tree_5_3_u00_r1_network.node[3].content_store 	decision_ratio[3] 	0.0006364758524919
scalar tree_5_3_u00_r1_network.node[4].core_layer 	interests[4] 	74009
scalar tree_5_3_u00_r1_network.node[4].core_layer 	data[4] 	70843
scalar tree_5_3_u00_r1_network.node[4].content_store 	p_hit[4] 	0.042778580983394
scalar tree_5_3_u00_r1_network.node[4].content_store 	hits[4] 	3166
scalar tree_5_3_u00_r1_network.node[4].content_store 	misses[4] 	70843
scalar tree_5_3_u00_r1_network.node[4].content_store 	decision_yes[4] 	53
scalar tree_5_3_u00_r1_network.node[4].content_store 	decision_no[4] 	70790
scalar tree_5_3_u00_r1_network.node[4].content_store 	decision_ratio[4] 	0.00074813319594032
scalar tree_5_3_u00_r1_network.node[5].core_layer 	interests[5] 	74931
scalar tree_5_3_u00_r1_network.node[5].core_layer 	data[5] 	71810
scalar tree_5_3_u00_r1_network.node[5].content_store 	p_hit[5] 	0.041638307242663
scalar tree_5_3_u00_r1_network.node[5].content_store 	hits[5] 	3120
scalar tree_5_3_u00_r1_network.node[5].content_store 	misses[5] 	71811
scalar tree_5_3_u00_r1_network.node[5].content_store 	decision_yes[5] 	62
scalar tree_5_3_u00_r1_network.node[5].content_store 	decision_no[5] 	71748
scalar tree_5_3_u00_r1_network.node[5].content_store 	decision_ratio[5] 	0.00086338950006963
scalar tree_5_3_u00_r1_network.node[6].core_layer 	interests[6] 	74205
scalar tree_5_3_u00_r1_network.node[6].core_layer 	data[6] 	71100
scalar tree_5_3_u00_r1_network.node[6].content_store 	p_hit[6] 	0.041843541540327
scalar tree_5_3_u00_r1_network.node[6].content_store 	hits[6] 	3105
scalar tree_5_3_u00_r1_network.node[6].content_store 	misses[6] 	71100
scalar tree_5_3_u00_r1_network.node[6].content_store 	decision_yes[6] 	57
scalar tree_5_3_u00_r1_network.node[6].content_store 	decision_no[6] 	71043
scalar tree_5_3_u00_r1_network.node[6].content_store 	decision_ratio[6] 	0.00080168776371308
scalar tree_5_3_u00_r1_network.node[7].core_layer 	interests[7] 	74166
scalar tree_5_3_u00_r1_network.node[7].core_layer 	data[7] 	71261
scalar tree_5_3_u00_r1_network.node[7].content_store 	p_hit[7] 	0.039141924871235
scalar tree_5_3_u00_r1_network.node[7].content_store 	hits[7] 	2903
scalar tree_5_3_u00_r1_network.node[7].content_store 	misses[7] 	71263
scalar tree_5_3_u00_r1_network.node[7].content_store 	decision_yes[7] 	58
scalar tree_5_3_u00_r1_network.node[7].content_store 	decision_no[7] 	71203
scalar tree_5_3_u00_r1_network.node[7].content_store 	decision_ratio[7] 	0.00081390943152636
scalar tree_5_3_u00_r1_network.node[8].core_layer 	interests[8] 	74986
scalar tree_5_3_u00_r1_network.node[8].core_layer 	data[8] 	71857
scalar tree_5_3_u00_r1_network.node[8].content_store 	p_hit[8] 	0.041701117541941
scalar tree_5_3_u00_r1_network.node[8].content_store 	hits[8] 	3127
scalar tree_5_3_u00_r1_network.node[8].content_store 	misses[8] 	71859
scalar tree_5_3_u00_r1_network.node[8].content_store 	decision_yes[8] 	53
scalar tree_5_3_u00_r1_network.node[8].content_store 	decision_no[8] 	71804
scalar tree_5_3_u00_r1_network.node[8].content_store 	decision_ratio[8] 	0.00073757601903781
scalar tree_5_3_u00_r1_network.node[9].core_layer 	interests[9] 	74704
scalar tree_5_3_u00_r1_network.node[9].core_layer 	data[9] 	71593
scalar tree_5_3_u00_r1_network.node[9].content_store 	p_hit[9] 	0.041630970229171
scalar tree_5_3_u00_r1_network.node[9].content_store 	hits[9] 	3110
scalar tree_5_3_u00_r1_network.node[9].content_store 	misses[9] 	71594
scalar tree_5_3_u00_r1_network.node[9].content_store 	decision_yes[9] 	63
scalar tree_5_3_u00_r1_network.node[9].content_store 	decision_no[9] 	71530
scalar tree_5_3_u00_r1_network.node[9].content_store 	decision_ratio[9] 	0.00087997429916333
scalar tree_5_3_u00_r1_network.node[10].core_layer 	interests[10] 	74497
scalar tree_5_3_u00_r1_network.node[10].core_layer 	data[10] 	71509
scalar tree_5_3_u00_r1_network.node[10].content_store 	p_hit[10] 	0.040095574318429
scalar tree_5_3_u00_r1_network.node[10].content_store 	hits[10] 	2987
scalar tree_5_3_u00_r1_network.node[10].content_store 	misses[10] 	71510
scalar tree_5_3_u00_r1_network.node[10].content_store 	decision_yes[10] 	55
scalar tree_5_3_u00_r1_network.node[10].content_store 	decision_no[10] 	71454
scalar tree_5_3_u00_r1_network.node[10].content_store 	decision_ratio[10] 	0.00076913395516648
scalar tree_5_3_u00_r1_network.node[11].core_layer 	interests[11] 	74411
scalar tree_5_3_u00_r1_network.node[11].core_layer 	data[11] 	71269
scalar tree_5_3_u00_r1_network.node[11].content_store 	p_hit[11] 	0.042198062114472
scalar tree_5_3_u00_r1_network.node[11].content_store 	hits[11] 	3140
scalar tree_5_3_u00_r1_network.node[11].content_store 	misses[11] 	71271
scalar tree_5_3_u00_r1_network.node[11].content_store 	decision_yes[11] 	50
scalar tree_5_3_u00_r1_network.node[11].content_store 	decision_no[11] 	71219
scalar tree_5_3_u00_r1_network.node[11].content_store 	decision_ratio[11] 	0.00070156730135122
scalar tree_5_3_u00_r1_network.node[12].core_layer 	interests[12] 	74240
scalar tree_5_3_u00_r1_network.node[12].core_layer 	data[12] 	71125
scalar tree_5_3_u00_r1_network.node[12].content_store 	p_hit[12] 	0.041945043103448
scalar tree_5_3_u00_r1_network.node[12].content_store 	hits[12] 	3114
scalar tree_5_3_u00_r1_network.node[12].content_store 	misses[12] 	71126
scalar tree_5_3_u00_r1_network.node[12].content_store 	decision_yes[12] 	47
scalar tree_5_3_u00_r1_network.node[12].content_store 	decision_no[12] 	71078
scalar tree_5_3_u00_r1_network.node[12].content_store 	decision_ratio[12] 	0.00066080843585237
scalar tree_5_3_u00_r1_network.node[13].core_layer 	interests[13] 	26227
scalar tree_5_3_u00_r1_network.node[13].core_layer 	data[13] 	24522
scalar tree_5_3_u00_r1_network.node[13].content_store 	p_hit[13] 	0.064971212872231
scalar tree_5_3_u00_r1_network.node[13].content_store 	hits[13] 	1704
scalar tree_5_3_u00_r1_network.node[13].content_store 	misses[13] 	24523
scalar tree_5_3_u00_r1_network.node[13].content_store 	decision_yes[13] 	23
scalar tree_5_3_u00_r1_network.node[13].content_store 	decision_no[13] 	24499
scalar tree_5_3_u00_r1_network.node[13].content_store 	decision_ratio[13] 	0.00093793328439768
scalar tree_5_3_u00_r1_network.node[14].core_layer 	interests[14] 	26111
scalar tree_5_3_u00_r1_network.node[14].core_layer 	data[14] 	24671
scalar tree_5_3_u00_r1_network.node[14].content_store 	p_hit[14] 	0.055149170847536
scalar tree_5_3_u00_r1_network.node[14].content_store 	hits[14] 	1440
scalar tree_5_3_u00_r1_network.node[14].content_store 	misses[14] 	24671
scalar tree_5_3_u00_r1_network.node[14].content_store 	decision_yes[14] 	24
scalar tree_5_3_u00_r1_network.node[14].content_store 	decision_no[14] 	24647
scalar tree_5_3_u00_r1_network.node[14].content_store 	decision_ratio[14] 	0.00097280207531109
scalar tree_5_3_u00_r1_network.node[15].core_layer 	interests[15] 	26453
scalar tree_5_3_u00_r1_network.node[15].core_layer 	data[15] 	24816
scalar tree_5_3_u00_r1_network.node[15].content_store 	p_hit[15] 	0.061883340263864
scalar tree_5_3_u00_r1_network.node[15].content_store 	hits[15] 	1637
scalar tree_5_3_u00_r1_network.node[15].content_store 	misses[15] 	24816
scalar tree_5_3_u00_r1_network.node[15].content_store 	decision_yes[15] 	38
scalar tree_5_3_u00_r1_network.node[15].content_store 	decision_no[15] 	24778
scalar tree_5_3_u00_r1_network.node[15].content_store 	decision_ratio[15] 	0.0015312701482914
scalar tree_5_3_u00_r1_network.node[16].core_layer 	interests[16] 	27051
scalar tree_5_3_u00_r1_network.node[16].core_layer 	data[16] 	25094
scalar tree_5_3_u00_r1_network.node[16].content_store 	p_hit[16] 	0.07234483013567
scalar tree_5_3_u00_r1_network.node[16].content_store 	hits[16] 	1957
scalar tree_5_3_u00_r1_network.node[16].content_store 	misses[16] 	25094
scalar tree_5_3_u00_r1_network.node[16].content_store 	decision_yes[16] 	25
scalar tree_5_3_u00_r1_network.node[16].content_store 	decision_no[16] 	25069
scalar tree_5_3_u00_r1_network.node[16].content_store 	decision_ratio[16] 	0.00099625408464175
scalar tree_5_3_u00_r1_network.node[17].core_layer 	interests[17] 	26663
scalar tree_5_3_u00_r1_network.node[17].core_layer 	data[17] 	24851
scalar tree_5_3_u00_r1_network.node[17].content_store 	p_hit[17] 	0.067959344409856
scalar tree_5_3_u00_r1_network.node[17].content_store 	hits[17] 	1812
scalar tree_5_3_u00_r1_network.node[17].content_store 	misses[17] 	24851
scalar tree_5_3_u00_r1_network.node[17].content_store 	decision_yes[17] 	30
scalar tree_5_3_u00_r1_network.node[17].content_store 	decision_no[17] 	24821
scalar tree_5_3_u00_r1_network.node[17].content_store 	decision_ratio[17] 	0.0012071948814937
scalar tree_5_3_u00_r1_network.node[18].core_layer 	interests[18] 	26566
scalar tree_5_3_u00_r1_network.node[18].core_layer 	data[18] 	24986
scalar tree_5_3_u00_r1_network.node[18].content_store 	p_hit[18] 	0.059474516299029
scalar tree_5_3_u00_r1_network.node[18].content_store 	hits[18] 	1580
scalar tree_5_3_u00_r1_network.node[18].content_store 	misses[18] 	24986
scalar tree_5_3_u00_r1_network.node[18].content_store 	decision_yes[18] 	21
scalar tree_5_3_u00_r1_network.node[18].content_store 	decision_no[18] 	24965
scalar tree_5_3_u00_r1_network.node[18].content_store 	decision_ratio[18] 	0.0008404706635716
scalar tree_5_3_u00_r1_network.node[19].core_layer 	interests[19] 	26781
scalar tree_5_3_u00_r1_network.node[19].core_layer 	data[19] 	24934
scalar tree_5_3_u00_r1_network.node[19].content_store 	p_hit[19] 	0.068966804824316
scalar tree_5_3_u00_r1_network.node[19].content_store 	hits[19] 	1847
scalar tree_5_3_u00_r1_network.node[19].content_store 	misses[19] 	24934
scalar tree_5_3_u00_r1_network.node[19].content_store 	decision_yes[19] 	22
scalar tree_5_3_u00_r1_network.node[19].content_store 	decision_no[19] 	24912
scalar tree_5_3_u00_r1_network.node[19].content_store 	decision_ratio[19] 	0.00088232934948263
scalar tree_5_3_u00_r1_network.node[20].core_layer 	interests[20] 	26416
scalar tree_5_3_u00_r1_network.node[20].core_layer 	data[20] 	24664
scalar tree_5_3_u00_r1_network.node[20].content_store 	p_hit[20] 	0.066323440339188
scalar tree_5_3_u00_r1_network.node[20].content_store 	hits[20] 	1752
scalar tree_5_3_u00_r1_network.node[20].content_store 	misses[20] 	24664
scalar tree_5_3_u00_r1_network.node[20].content_store 	decision_yes[20] 	32
scalar tree_5_3_u00_r1_network.node[20].content_store 	decision_no[20] 	24632
scalar tree_5_3_u00_r1_network.node[20].content_store 	decision_ratio[20] 	0.0012974375608174
scalar tree_5_3_u00_r1_network.node[21].core_layer 	interests[21] 	26123
scalar tree_5_3_u00_r1_network.node[21].core_layer 	data[21] 	24607
scalar tree_5_3_u00_r1_network.node[21].content_store 	p_hit[21] 	0.058033150863224
scalar tree_5_3_u00_r1_network.node[21].content_store 	hits[21] 	1516
scalar tree_5_3_u00_r1_network.node[21].content_store 	misses[21] 	24607
scalar tree_5_3_u00_r1_network.node[21].content_store 	decision_yes[21] 	24
scalar tree_5_3_u00_r1_network.node[21].content_store 	decision_no[21] 	24583
scalar tree_5_3_u00_r1_network.node[21].content_store 	decision_ratio[21] 	0.0009753322225383
scalar tree_5_3_u00_r1_network.node[22].core_layer 	interests[22] 	26262
scalar tree_5_3_u00_r1_network.node[22].core_layer 	data[22] 	24484
scalar tree_5_3_u00_r1_network.node[22].content_store 	p_hit[22] 	0.067740461503313
scalar tree_5_3_u00_r1_network.node[22].content_store 	hits[22] 	1779
scalar tree_5_3_u00_r1_network.node[22].content_store 	misses[22] 	24483
scalar tree_5_3_u00_r1_network.node[22].content_store 	decision_yes[22] 	32
scalar tree_5_3_u00_r1_network.node[22].content_store 	decision_no[22] 	24452
scalar tree_5_3_u00_r1_network.node[22].content_store 	decision_ratio[22] 	0.0013069759843163
scalar tree_5_3_u00_r1_network.node[23].core_layer 	interests[23] 	26593
scalar tree_5_3_u00_r1_network.node[23].core_layer 	data[23] 	24954
scalar tree_5_3_u00_r1_network.node[23].content_store 	p_hit[23] 	0.061670364381604
scalar tree_5_3_u00_r1_network.node[23].content_store 	hits[23] 	1640
scalar tree_5_3_u00_r1_network.node[23].content_store 	misses[23] 	24953
scalar tree_5_3_u00_r1_network.node[23].content_store 	decision_yes[23] 	30
scalar tree_5_3_u00_r1_network.node[23].content_store 	decision_no[23] 	24924
scalar tree_5_3_u00_r1_network.node[23].content_store 	decision_ratio[23] 	0.0012022120702092
scalar tree_5_3_u00_r1_network.node[24].core_layer 	interests[24] 	26465
scalar tree_5_3_u00_r1_network.node[24].core_layer 	data[24] 	24730
scalar tree_5_3_u00_r1_network.node[24].content_store 	p_hit[24] 	0.065558284526733
scalar tree_5_3_u00_r1_network.node[24].content_store 	hits[24] 	1735
scalar tree_5_3_u00_r1_network.node[24].content_store 	misses[24] 	24730
scalar tree_5_3_u00_r1_network.node[24].content_store 	decision_yes[24] 	24
scalar tree_5_3_u00_r1_network.node[24].content_store 	decision_no[24] 	24706
scalar tree_5_3_u00_r1_network.node[24].content_store 	decision_ratio[24] 	0.00097048119692681
scalar tree_5_3_u00_r1_network.node[25].core_layer 	interests[25] 	26832
scalar tree_5_3_u00_r1_network.node[25].core_layer 	data[25] 	25172
scalar tree_5_3_u00_r1_network.node[25].content_store 	p_hit[25] 	0.061866428145498
scalar tree_5_3_u00_r1_network.node[25].content_store 	hits[25] 	1660
scalar tree_5_3_u00_r1_network.node[25].content_store 	misses[25] 	25172
scalar tree_5_3_u00_r1_network.node[25].content_store 	decision_yes[25] 	36
scalar tree_5_3_u00_r1_network.node[25].content_store 	decision_no[25] 	25136
scalar tree_5_3_u00_r1_network.node[25].content_store 	decision_ratio[25] 	0.001430160495789
scalar tree_5_3_u00_r1_network.node[26].core_layer 	interests[26] 	26583
scalar tree_5_3_u00_r1_network.node[26].core_layer 	data[26] 	24879
scalar tree_5_3_u00_r1_network.node[26].content_store 	p_hit[26] 	0.064101117255389
scalar tree_5_3_u00_r1_network.node[26].content_store 	hits[26] 	1704
scalar tree_5_3_u00_r1_network.node[26].content_store 	misses[26] 	24879
scalar tree_5_3_u00_r1_network.node[26].content_store 	decision_yes[26] 	22
scalar tree_5_3_u00_r1_network.node[26].content_store 	decision_no[26] 	24857
scalar tree_5_3_u00_r1_network.node[26].content_store 	decision_ratio[26] 	0.00088427991478757
scalar tree_5_3_u00_r1_network.node[27].core_layer 	interests[27] 	26686
scalar tree_5_3_u00_r1_network.node[27].core_layer 	data[27] 	24937
scalar tree_5_3_u00_r1_network.node[27].content_store 	p_hit[27] 	0.06557745634415
scalar tree_5_3_u00_r1_network.node[27].content_store 	hits[27] 	1750
scalar tree_5_3_u00_r1_network.node[27].content_store 	misses[27] 	24936
scalar tree_5_3_u00_r1_network.node[27].content_store 	decision_yes[27] 	30
scalar tree_5_3_u00_r1_network.node[27].content_store 	decision_no[27] 	24907
scalar tree_5_3_u00_r1_network.node[27].content_store 	decision_ratio[27] 	0.0012030316397321
scalar tree_5_3_u00_r1_network.node[28].core_layer 	interests[28] 	26507
scalar tree_5_3_u00_r1_network.node[28].core_layer 	data[28] 	25048
scalar tree_5_3_u00_r1_network.node[28].content_store 	p_hit[28] 	0.055004338476629
scalar tree_5_3_u00_r1_network.node[28].content_store 	hits[28] 	1458
scalar tree_5_3_u00_r1_network.node[28].content_store 	misses[28] 	25049
scalar tree_5_3_u00_r1_network.node[28].content_store 	decision_yes[28] 	32
scalar tree_5_3_u00_r1_network.node[28].content_store 	decision_no[28] 	25016
scalar tree_5_3_u00_r1_network.node[28].content_store 	decision_ratio[28] 	0.0012775471095497
scalar tree_5_3_u00_r1_network.node[29].core_layer 	interests[29] 	26752
scalar tree_5_3_u00_r1_network.node[29].core_layer 	data[29] 	25117
scalar tree_5_3_u00_r1_network.node[29].content_store 	p_hit[29] 	0.061116925837321
scalar tree_5_3_u00_r1_network.node[29].content_store 	hits[29] 	1635
scalar tree_5_3_u00_r1_network.node[29].content_store 	misses[29] 	25117
scalar tree_5_3_u00_r1_network.node[29].content_store 	decision_yes[29] 	29
scalar tree_5_3_u00_r1_network.node[29].content_store 	decision_no[29] 	25088
scalar tree_5_3_u00_r1_network.node[29].content_store 	decision_ratio[29] 	0.0011545964884341
scalar tree_5_3_u00_r1_network.node[30].core_layer 	interests[30] 	26398
scalar tree_5_3_u00_r1_network.node[30].core_layer 	data[30] 	24539
scalar tree_5_3_u00_r1_network.node[30].content_store 	p_hit[30] 	0.070422001666793
scalar tree_5_3_u00_r1_network.node[30].content_store 	hits[30] 	1859
scalar tree_5_3_u00_r1_network.node[30].content_store 	misses[30] 	24539
scalar tree_5_3_u00_r1_network.node[30].content_store 	decision_yes[30] 	22
scalar tree_5_3_u00_r1_network.node[30].content_store 	decision_no[30] 	24517
scalar tree_5_3_u00_r1_network.node[30].content_store 	decision_ratio[30] 	0.00089653205102082
scalar tree_5_3_u00_r1_network.node[31].core_layer 	interests[31] 	26209
scalar tree_5_3_u00_r1_network.node[31].core_layer 	data[31] 	24587
scalar tree_5_3_u00_r1_network.node[31].content_store 	p_hit[31] 	0.061848983173719
scalar tree_5_3_u00_r1_network.node[31].content_store 	hits[31] 	1621
scalar tree_5_3_u00_r1_network.node[31].content_store 	misses[31] 	24588
scalar tree_5_3_u00_r1_network.node[31].content_store 	decision_yes[31] 	23
scalar tree_5_3_u00_r1_network.node[31].content_store 	decision_no[31] 	24564
scalar tree_5_3_u00_r1_network.node[31].content_store 	decision_ratio[31] 	0.0009354536950421
scalar tree_5_3_u00_r1_network.node[32].core_layer 	interests[32] 	27021
scalar tree_5_3_u00_r1_network.node[32].core_layer 	data[32] 	25039
scalar tree_5_3_u00_r1_network.node[32].content_store 	p_hit[32] 	0.0733133488768
scalar tree_5_3_u00_r1_network.node[32].content_store 	hits[32] 	1981
scalar tree_5_3_u00_r1_network.node[32].content_store 	misses[32] 	25040
scalar tree_5_3_u00_r1_network.node[32].content_store 	decision_yes[32] 	39
scalar tree_5_3_u00_r1_network.node[32].content_store 	decision_no[32] 	25000
scalar tree_5_3_u00_r1_network.node[32].content_store 	decision_ratio[32] 	0.0015575701905028
scalar tree_5_3_u00_r1_network.node[33].core_layer 	interests[33] 	26546
scalar tree_5_3_u00_r1_network.node[33].core_layer 	data[33] 	24871
scalar tree_5_3_u00_r1_network.node[33].content_store 	p_hit[33] 	0.063098018533866
scalar tree_5_3_u00_r1_network.node[33].content_store 	hits[33] 	1675
scalar tree_5_3_u00_r1_network.node[33].content_store 	misses[33] 	24871
scalar tree_5_3_u00_r1_network.node[33].content_store 	decision_yes[33] 	30
scalar tree_5_3_u00_r1_network.node[33].content_store 	decision_no[33] 	24841
scalar tree_5_3_u00_r1_network.node[33].content_store 	decision_ratio[33] 	0.0012062241164408
scalar tree_5_3_u00_r1_network.node[34].core_layer 	interests[34] 	26715
scalar tree_5_3_u00_r1_network.node[34].core_layer 	data[34] 	24922
scalar tree_5_3_u00_r1_network.node[34].content_store 	p_hit[34] 	0.067115852517312
scalar tree_5_3_u00_r1_network.node[34].content_store 	hits[34] 	1793
scalar tree_5_3_u00_r1_network.node[34].content_store 	misses[34] 	24922
scalar tree_5_3_u00_r1_network.node[34].content_store 	decision_yes[34] 	33
scalar tree_5_3_u00_r1_network.node[34].content_store 	decision_no[34] 	24889
scalar tree_5_3_u00_r1_network.node[34].content_store 	decision_ratio[34] 	0.0013241312896236
scalar tree_5_3_u00_r1_network.node[35].core_layer 	interests[35] 	26705
scalar tree_5_3_u00_r1_network.node[35].core_layer 	data[35] 	24897
scalar tree_5_3_u00_r1_network.node[35].content_store 	p_hit[35] 	0.067702677401236
scalar tree_5_3_u00_r1_network.node[35].content_store 	hits[35] 	1808
scalar tree_5_3_u00_r1_network.node[35].content_store 	misses[35] 	24897
scalar tree_5_3_u00_r1_network.node[35].content_store 	decision_yes[35] 	34
scalar tree_5_3_u00_r1_network.node[35].content_store 	decision_no[35] 	24863
scalar tree_5_3_u00_r1_network.node[35].content_store 	decision_ratio[35] 	0.0013656263806884
scalar tree_5_3_u00_r1_network.node[36].core_layer 	interests[36] 	26389
scalar tree_5_3_u00_r1_network.node[36].core_layer 	data[36] 	24592
scalar tree_5_3_u00_r1_network.node[36].content_store 	p_hit[36] 	0.068096555382925
scalar tree_5_3_u00_r1_network.node[36].content_store 	hits[36] 	1797
scalar tree_5_3_u00_r1_network.node[36].content_store 	misses[36] 	24592
scalar tree_5_3_u00_r1_network.node[36].content_store 	decision_yes[36] 	24
scalar tree_5_3_u00_r1_network.node[36].content_store 	decision_no[36] 	24568
scalar tree_5_3_u00_r1_network.node[36].content_store 	decision_ratio[36] 	0.00097592713077424
scalar tree_5_3_u00_r1_network.node[37].core_layer 	interests[37] 	26432
scalar tree_5_3_u00_r1_network.node[37].core_layer 	data[37] 	24804
scalar tree_5_3_u00_r1_network.node[37].content_store 	p_hit[37] 	0.06159200968523
scalar tree_5_3_u00_r1_network.node[37].content_store 	hits[37] 	1628
scalar tree_5_3_u00_r1_network.node[37].content_store 	misses[37] 	24804
scalar tree_5_3_u00_r1_network.node[37].content_store 	decision_yes[37] 	31
scalar tree_5_3_u00_r1_network.node[37].content_store 	decision_no[37] 	24773
scalar tree_5_3_u00_r1_network.node[37].content_store 	decision_ratio[37] 	0.0012497984196097
scalar tree_5_3_u00_r1_network.node[38].core_layer 	interests[38] 	26385
scalar tree_5_3_u00_r1_network.node[38].core_layer 	data[38] 	24740
scalar tree_5_3_u00_r1_network.node[38].content_store 	p_hit[38] 	0.062346029941255
scalar tree_5_3_u00_r1_network.node[38].content_store 	hits[38] 	1645
scalar tree_5_3_u00_r1_network.node[38].content_store 	misses[38] 	24740
scalar tree_5_3_u00_r1_network.node[38].content_store 	decision_yes[38] 	28
scalar tree_5_3_u00_r1_network.node[38].content_store 	decision_no[38] 	24712
scalar tree_5_3_u00_r1_network.node[38].content_store 	decision_ratio[38] 	0.0011317704122878
scalar tree_5_3_u00_r1_network.node[39].core_layer 	interests[39] 	26436
scalar tree_5_3_u00_r1_network.node[39].core_layer 	data[39] 	24695
scalar tree_5_3_u00_r1_network.node[39].content_store 	p_hit[39] 	0.065857164472689
scalar tree_5_3_u00_r1_network.node[39].content_store 	hits[39] 	1741
scalar tree_5_3_u00_r1_network.node[39].content_store 	misses[39] 	24695
scalar tree_5_3_u00_r1_network.node[39].content_store 	decision_yes[39] 	30
scalar tree_5_3_u00_r1_network.node[39].content_store 	decision_no[39] 	24665
scalar tree_5_3_u00_r1_network.node[39].content_store 	decision_ratio[39] 	0.0012148208139299
scalar tree_5_3_u00_r1_network.node[40].core_layer 	interests[40] 	11912
scalar tree_5_3_u00_r1_network.node[40].core_layer 	data[40] 	8715
scalar tree_5_3_u00_r1_network.node[40].content_store 	p_hit[40] 	0.26838482202821
scalar tree_5_3_u00_r1_network.node[40].content_store 	hits[40] 	3197
scalar tree_5_3_u00_r1_network.node[40].content_store 	misses[40] 	8715
scalar tree_5_3_u00_r1_network.node[40].content_store 	decision_yes[40] 	22
scalar tree_5_3_u00_r1_network.node[40].content_store 	decision_no[40] 	8693
scalar tree_5_3_u00_r1_network.node[40].content_store 	decision_ratio[40] 	0.0025243832472748
scalar tree_5_3_u00_r1_network.node[41].core_layer 	interests[41] 	11919
scalar tree_5_3_u00_r1_network.node[41].core_layer 	data[41] 	8820
scalar tree_5_3_u00_r1_network.node[41].content_store 	p_hit[41] 	0.26000503397936
scalar tree_5_3_u00_r1_network.node[41].content_store 	hits[41] 	3099
scalar tree_5_3_u00_r1_network.node[41].content_store 	misses[41] 	8820
scalar tree_5_3_u00_r1_network.node[41].content_store 	decision_yes[41] 	9
scalar tree_5_3_u00_r1_network.node[41].content_store 	decision_no[41] 	8811
scalar tree_5_3_u00_r1_network.node[41].content_store 	decision_ratio[41] 	0.0010204081632653
scalar tree_5_3_u00_r1_network.node[42].core_layer 	interests[42] 	11893
scalar tree_5_3_u00_r1_network.node[42].core_layer 	data[42] 	8692
scalar tree_5_3_u00_r1_network.node[42].content_store 	p_hit[42] 	0.26914992012108
scalar tree_5_3_u00_r1_network.node[42].content_store 	hits[42] 	3201
scalar tree_5_3_u00_r1_network.node[42].content_store 	misses[42] 	8692
scalar tree_5_3_u00_r1_network.node[42].content_store 	decision_yes[42] 	22
scalar tree_5_3_u00_r1_network.node[42].content_store 	decision_no[42] 	8670
scalar tree_5_3_u00_r1_network.node[42].content_store 	decision_ratio[42] 	0.0025310630464795
scalar tree_5_3_u00_r1_network.node[43].core_layer 	interests[43] 	11936
scalar tree_5_3_u00_r1_network.node[43].core_layer 	data[43] 	8652
scalar tree_5_3_u00_r1_network.node[43].content_store 	p_hit[43] 	0.27513404825737
scalar tree_5_3_u00_r1_network.node[43].content_store 	hits[43] 	3284
scalar tree_5_3_u00_r1_network.node[43].content_store 	misses[43] 	8652
scalar tree_5_3_u00_r1_network.node[43].content_store 	decision_yes[43] 	23
scalar tree_5_3_u00_r1_network.node[43].content_store 	decision_no[43] 	8629
scalar tree_5_3_u00_r1_network.node[43].content_store 	decision_ratio[43] 	0.0026583448913546
scalar tree_5_3_u00_r1_network.node[44].core_layer 	interests[44] 	11816
scalar tree_5_3_u00_r1_network.node[44].core_layer 	data[44] 	8673
scalar tree_5_3_u00_r1_network.node[44].content_store 	p_hit[44] 	0.26599526066351
scalar tree_5_3_u00_r1_network.node[44].content_store 	hits[44] 	3143
scalar tree_5_3_u00_r1_network.node[44].content_store 	misses[44] 	8673
scalar tree_5_3_u00_r1_network.node[44].content_store 	decision_yes[44] 	10
scalar tree_5_3_u00_r1_network.node[44].content_store 	decision_no[44] 	8663
scalar tree_5_3_u00_r1_network.node[44].content_store 	decision_ratio[44] 	0.0011530035743111
scalar tree_5_3_u00_r1_network.node[45].core_layer 	interests[45] 	11982
scalar tree_5_3_u00_r1_network.node[45].core_layer 	data[45] 	8786
scalar tree_5_3_u00_r1_network.node[45].content_store 	p_hit[45] 	0.26673343348356
scalar tree_5_3_u00_r1_network.node[45].content_store 	hits[45] 	3196
scalar tree_5_3_u00_r1_network.node[45].content_store 	misses[45] 	8786
scalar tree_5_3_u00_r1_network.node[45].content_store 	decision_yes[45] 	19
scalar tree_5_3_u00_r1_network.node[45].content_store 	decision_no[45] 	8767
scalar tree_5_3_u00_r1_network.node[45].content_store 	decision_ratio[45] 	0.0021625312997951
scalar tree_5_3_u00_r1_network.node[46].core_layer 	interests[46] 	11967
scalar tree_5_3_u00_r1_network.node[46].core_layer 	data[46] 	8816
scalar tree_5_3_u00_r1_network.node[46].content_store 	p_hit[46] 	0.26330742876243
scalar tree_5_3_u00_r1_network.node[46].content_store 	hits[46] 	3151
scalar tree_5_3_u00_r1_network.node[46].content_store 	misses[46] 	8816
scalar tree_5_3_u00_r1_network.node[46].content_store 	decision_yes[46] 	16
scalar tree_5_3_u00_r1_network.node[46].content_store 	decision_no[46] 	8800
scalar tree_5_3_u00_r1_network.node[46].content_store 	decision_ratio[46] 	0.0018148820326679
scalar tree_5_3_u00_r1_network.node[47].core_layer 	interests[47] 	12055
scalar tree_5_3_u00_r1_network.node[47].core_layer 	data[47] 	8869
scalar tree_5_3_u00_r1_network.node[47].content_store 	p_hit[47] 	0.26420572376607
scalar tree_5_3_u00_r1_network.node[47].content_store 	hits[47] 	3185
scalar tree_5_3_u00_r1_network.node[47].content_store 	misses[47] 	8870
scalar tree_5_3_u00_r1_network.node[47].content_store 	decision_yes[47] 	17
scalar tree_5_3_u00_r1_network.node[47].content_store 	decision_no[47] 	8852
scalar tree_5_3_u00_r1_network.node[47].content_store 	decision_ratio[47] 	0.0019167888149735
scalar tree_5_3_u00_r1_network.node[48].core_layer 	interests[48] 	11944
scalar tree_5_3_u00_r1_network.node[48].core_layer 	data[48] 	8768
scalar tree_5_3_u00_r1_network.node[48].content_store 	p_hit[48] 	0.26599129269926
scalar tree_5_3_u00_r1_network.node[48].content_store 	hits[48] 	3177
scalar tree_5_3_u00_r1_network.node[48].content_store 	misses[48] 	8767
scalar tree_5_3_u00_r1_network.node[48].content_store 	decision_yes[48] 	16
scalar tree_5_3_u00_r1_network.node[48].content_store 	decision_no[48] 	8752
scalar tree_5_3_u00_r1_network.node[48].content_store 	decision_ratio[48] 	0.0018248175182482
scalar tree_5_3_u00_r1_network.node[49].core_layer 	interests[49] 	12297
scalar tree_5_3_u00_r1_network.node[49].core_layer 	data[49] 	9076
scalar tree_5_3_u00_r1_network.node[49].content_store 	p_hit[49] 	0.26193380499309
scalar tree_5_3_u00_r1_network.node[49].content_store 	hits[49] 	3221
scalar tree_5_3_u00_r1_network.node[49].content_store 	misses[49] 	9076
scalar tree_5_3_u00_r1_network.node[49].content_store 	decision_yes[49] 	27
scalar tree_5_3_u00_r1_network.node[49].content_store 	decision_no[49] 	9049
scalar tree_5_3_u00_r1_network.node[49].content_store 	decision_ratio[49] 	0.002974878801234
scalar tree_5_3_u00_r1_network.node[50].core_layer 	interests[50] 	11868
scalar tree_5_3_u00_r1_network.node[50].core_layer 	data[50] 	8757
scalar tree_5_3_u00_r1_network.node[50].content_store 	p_hit[50] 	0.26213346814965
scalar tree_5_3_u00_r1_network.node[50].content_store 	hits[50] 	3111
scalar tree_5_3_u00_r1_network.node[50].content_store 	misses[50] 	8757
scalar tree_5_3_u00_r1_network.node[50].content_store 	decision_yes[50] 	20
scalar tree_5_3_u00_r1_network.node[50].content_store 	decision_no[50] 	8737
scalar tree_5_3_u00_r1_network.node[50].content_store 	decision_ratio[50] 	0.0022838871759735
scalar tree_5_3_u00_r1_network.node[51].core_layer 	interests[51] 	12345
scalar tree_5_3_u00_r1_network.node[51].core_layer 	data[51] 	9218
scalar tree_5_3_u00_r1_network.node[51].content_store 	p_hit[51] 	0.25330093155124
scalar tree_5_3_u00_r1_network.node[51].content_store 	hits[51] 	3127
scalar tree_5_3_u00_r1_network.node[51].content_store 	misses[51] 	9218
scalar tree_5_3_u00_r1_network.node[51].content_store 	decision_yes[51] 	15
scalar tree_5_3_u00_r1_network.node[51].content_store 	decision_no[51] 	9203
scalar tree_5_3_u00_r1_network.node[51].content_store 	decision_ratio[51] 	0.0016272510305923
scalar tree_5_3_u00_r1_network.node[52].core_layer 	interests[52] 	11930
scalar tree_5_3_u00_r1_network.node[52].core_layer 	data[52] 	8857
scalar tree_5_3_u00_r1_network.node[52].content_store 	p_hit[52] 	0.25758591785415
scalar tree_5_3_u00_r1_network.node[52].content_store 	hits[52] 	3073
scalar tree_5_3_u00_r1_network.node[52].content_store 	misses[52] 	8857
scalar tree_5_3_u00_r1_network.node[52].content_store 	decision_yes[52] 	14
scalar tree_5_3_u00_r1_network.node[52].content_store 	decision_no[52] 	8843
scalar tree_5_3_u00_r1_network.node[52].content_store 	decision_ratio[52] 	0.0015806706559783
scalar tree_5_3_u00_r1_network.node[53].core_layer 	interests[53] 	11931
scalar tree_5_3_u00_r1_network.node[53].core_layer 	data[53] 	8946
scalar tree_5_3_u00_r1_network.node[53].content_store 	p_hit[53] 	0.25018858436007
scalar tree_5_3_u00_r1_network.node[53].content_store 	hits[53] 	2985
scalar tree_5_3_u00_r1_network.node[53].content_store 	misses[53] 	8946
scalar tree_5_3_u00_r1_network.node[53].content_store 	decision_yes[53] 	19
scalar tree_5_3_u00_r1_network.node[53].content_store 	decision_no[53] 	8927
scalar tree_5_3_u00_r1_network.node[53].content_store 	decision_ratio[53] 	0.0021238542365303
scalar tree_5_3_u00_r1_network.node[54].core_layer 	interests[54] 	12074
scalar tree_5_3_u00_r1_network.node[54].core_layer 	data[54] 	8861
scalar tree_5_3_u00_r1_network.node[54].content_store 	p_hit[54] 	0.26602617193971
scalar tree_5_3_u00_r1_network.node[54].content_store 	hits[54] 	3212
scalar tree_5_3_u00_r1_network.node[54].content_store 	misses[54] 	8862
scalar tree_5_3_u00_r1_network.node[54].content_store 	decision_yes[54] 	21
scalar tree_5_3_u00_r1_network.node[54].content_store 	decision_no[54] 	8840
scalar tree_5_3_u00_r1_network.node[54].content_store 	decision_ratio[54] 	0.0023699356731746
scalar tree_5_3_u00_r1_network.node[55].core_layer 	interests[55] 	11823
scalar tree_5_3_u00_r1_network.node[55].core_layer 	data[55] 	8722
scalar tree_5_3_u00_r1_network.node[55].content_store 	p_hit[55] 	0.26228537596211
scalar tree_5_3_u00_r1_network.node[55].content_store 	hits[55] 	3101
scalar tree_5_3_u00_r1_network.node[55].content_store 	misses[55] 	8722
scalar tree_5_3_u00_r1_network.node[55].content_store 	decision_yes[55] 	14
scalar tree_5_3_u00_r1_network.node[55].content_store 	decision_no[55] 	8708
scalar tree_5_3_u00_r1_network.node[55].content_store 	decision_ratio[55] 	0.0016051364365971
scalar tree_5_3_u00_r1_network.node[56].core_layer 	interests[56] 	12114
scalar tree_5_3_u00_r1_network.node[56].core_layer 	data[56] 	8985
scalar tree_5_3_u00_r1_network.node[56].content_store 	p_hit[56] 	0.25821363711408
scalar tree_5_3_u00_r1_network.node[56].content_store 	hits[56] 	3128
scalar tree_5_3_u00_r1_network.node[56].content_store 	misses[56] 	8986
scalar tree_5_3_u00_r1_network.node[56].content_store 	decision_yes[56] 	16
scalar tree_5_3_u00_r1_network.node[56].content_store 	decision_no[56] 	8969
scalar tree_5_3_u00_r1_network.node[56].content_store 	decision_ratio[56] 	0.0017807456872565
scalar tree_5_3_u00_r1_network.node[57].core_layer 	interests[57] 	12036
scalar tree_5_3_u00_r1_network.node[57].core_layer 	data[57] 	8859
scalar tree_5_3_u00_r1_network.node[57].content_store 	p_hit[57] 	0.26395812562313
scalar tree_5_3_u00_r1_network.node[57].content_store 	hits[57] 	3177
scalar tree_5_3_u00_r1_network.node[57].content_store 	misses[57] 	8859
scalar tree_5_3_u00_r1_network.node[57].content_store 	decision_yes[57] 	11
scalar tree_5_3_u00_r1_network.node[57].content_store 	decision_no[57] 	8848
scalar tree_5_3_u00_r1_network.node[57].content_store 	decision_ratio[57] 	0.0012416751326335
scalar tree_5_3_u00_r1_network.node[58].core_layer 	interests[58] 	11992
scalar tree_5_3_u00_r1_network.node[58].core_layer 	data[58] 	8835
scalar tree_5_3_u00_r1_network.node[58].content_store 	p_hit[58] 	0.2631754503002
scalar tree_5_3_u00_r1_network.node[58].content_store 	hits[58] 	3156
scalar tree_5_3_u00_r1_network.node[58].content_store 	misses[58] 	8836
scalar tree_5_3_u00_r1_network.node[58].content_store 	decision_yes[58] 	14
scalar tree_5_3_u00_r1_network.node[58].content_store 	decision_no[58] 	8821
scalar tree_5_3_u00_r1_network.node[58].content_store 	decision_ratio[58] 	0.0015846066779853
scalar tree_5_3_u00_r1_network.node[59].core_layer 	interests[59] 	12053
scalar tree_5_3_u00_r1_network.node[59].core_layer 	data[59] 	8937
scalar tree_5_3_u00_r1_network.node[59].content_store 	p_hit[59] 	0.25852484858541
scalar tree_5_3_u00_r1_network.node[59].content_store 	hits[59] 	3116
scalar tree_5_3_u00_r1_network.node[59].content_store 	misses[59] 	8937
scalar tree_5_3_u00_r1_network.node[59].content_store 	decision_yes[59] 	15
scalar tree_5_3_u00_r1_network.node[59].content_store 	decision_no[59] 	8922
scalar tree_5_3_u00_r1_network.node[59].content_store 	decision_ratio[59] 	0.0016784155756965
scalar tree_5_3_u00_r1_network.node[60].core_layer 	interests[60] 	12174
scalar tree_5_3_u00_r1_network.node[60].core_layer 	data[60] 	9009
scalar tree_5_3_u00_r1_network.node[60].content_store 	p_hit[60] 	0.2599802858551
scalar tree_5_3_u00_r1_network.node[60].content_store 	hits[60] 	3165
scalar tree_5_3_u00_r1_network.node[60].content_store 	misses[60] 	9009
scalar tree_5_3_u00_r1_network.node[60].content_store 	decision_yes[60] 	17
scalar tree_5_3_u00_r1_network.node[60].content_store 	decision_no[60] 	8992
scalar tree_5_3_u00_r1_network.node[60].content_store 	decision_ratio[60] 	0.0018870018870019
scalar tree_5_3_u00_r1_network.node[61].core_layer 	interests[61] 	12135
scalar tree_5_3_u00_r1_network.node[61].core_layer 	data[61] 	8942
scalar tree_5_3_u00_r1_network.node[61].content_store 	p_hit[61] 	0.263123197363
scalar tree_5_3_u00_r1_network.node[61].content_store 	hits[61] 	3193
scalar tree_5_3_u00_r1_network.node[61].content_store 	misses[61] 	8942
scalar tree_5_3_u00_r1_network.node[61].content_store 	decision_yes[61] 	16
scalar tree_5_3_u00_r1_network.node[61].content_store 	decision_no[61] 	8926
scalar tree_5_3_u00_r1_network.node[61].content_store 	decision_ratio[61] 	0.0017893088794453
scalar tree_5_3_u00_r1_network.node[62].core_layer 	interests[62] 	11851
scalar tree_5_3_u00_r1_network.node[62].core_layer 	data[62] 	8690
scalar tree_5_3_u00_r1_network.node[62].content_store 	p_hit[62] 	0.26681292717914
scalar tree_5_3_u00_r1_network.node[62].content_store 	hits[62] 	3162
scalar tree_5_3_u00_r1_network.node[62].content_store 	misses[62] 	8689
scalar tree_5_3_u00_r1_network.node[62].content_store 	decision_yes[62] 	17
scalar tree_5_3_u00_r1_network.node[62].content_store 	decision_no[62] 	8673
scalar tree_5_3_u00_r1_network.node[62].content_store 	decision_ratio[62] 	0.0019562715765247
scalar tree_5_3_u00_r1_network.node[63].core_layer 	interests[63] 	11949
scalar tree_5_3_u00_r1_network.node[63].core_layer 	data[63] 	8784
scalar tree_5_3_u00_r1_network.node[63].content_store 	p_hit[63] 	0.26487572181773
scalar tree_5_3_u00_r1_network.node[63].content_store 	hits[63] 	3165
scalar tree_5_3_u00_r1_network.node[63].content_store 	misses[63] 	8784
scalar tree_5_3_u00_r1_network.node[63].content_store 	decision_yes[63] 	11
scalar tree_5_3_u00_r1_network.node[63].content_store 	decision_no[63] 	8773
scalar tree_5_3_u00_r1_network.node[63].content_store 	decision_ratio[63] 	0.001252276867031
scalar tree_5_3_u00_r1_network.node[64].core_layer 	interests[64] 	11886
scalar tree_5_3_u00_r1_network.node[64].core_layer 	data[64] 	8671
scalar tree_5_3_u00_r1_network.node[64].content_store 	p_hit[64] 	0.27048628638735
scalar tree_5_3_u00_r1_network.node[64].content_store 	hits[64] 	3215
scalar tree_5_3_u00_r1_network.node[64].content_store 	misses[64] 	8671
scalar tree_5_3_u00_r1_network.node[64].content_store 	decision_yes[64] 	14
scalar tree_5_3_u00_r1_network.node[64].content_store 	decision_no[64] 	8657
scalar tree_5_3_u00_r1_network.node[64].content_store 	decision_ratio[64] 	0.0016145773267213
scalar tree_5_3_u00_r1_network.node[65].core_layer 	interests[65] 	12086
scalar tree_5_3_u00_r1_network.node[65].core_layer 	data[65] 	8863
scalar tree_5_3_u00_r1_network.node[65].content_store 	p_hit[65] 	0.26667218269072
scalar tree_5_3_u00_r1_network.node[65].content_store 	hits[65] 	3223
scalar tree_5_3_u00_r1_network.node[65].content_store 	misses[65] 	8863
scalar tree_5_3_u00_r1_network.node[65].content_store 	decision_yes[65] 	13
scalar tree_5_3_u00_r1_network.node[65].content_store 	decision_no[65] 	8850
scalar tree_5_3_u00_r1_network.node[65].content_store 	decision_ratio[65] 	0.0014667719733724
scalar tree_5_3_u00_r1_network.node[66].core_layer 	interests[66] 	11760
scalar tree_5_3_u00_r1_network.node[66].core_layer 	data[66] 	8589
scalar tree_5_3_u00_r1_network.node[66].content_store 	p_hit[66] 	0.26964285714286
scalar tree_5_3_u00_r1_network.node[66].content_store 	hits[66] 	3171
scalar tree_5_3_u00_r1_network.node[66].content_store 	misses[66] 	8589
scalar tree_5_3_u00_r1_network.node[66].content_store 	decision_yes[66] 	22
scalar tree_5_3_u00_r1_network.node[66].content_store 	decision_no[66] 	8567
scalar tree_5_3_u00_r1_network.node[66].content_store 	decision_ratio[66] 	0.0025614157643497
scalar tree_5_3_u00_r1_network.node[67].core_layer 	interests[67] 	11852
scalar tree_5_3_u00_r1_network.node[67].core_layer 	data[67] 	8748
scalar tree_5_3_u00_r1_network.node[67].content_store 	p_hit[67] 	0.26198110023625
scalar tree_5_3_u00_r1_network.node[67].content_store 	hits[67] 	3105
scalar tree_5_3_u00_r1_network.node[67].content_store 	misses[67] 	8747
scalar tree_5_3_u00_r1_network.node[67].content_store 	decision_yes[67] 	19
scalar tree_5_3_u00_r1_network.node[67].content_store 	decision_no[67] 	8729
scalar tree_5_3_u00_r1_network.node[67].content_store 	decision_ratio[67] 	0.0021719250114312
scalar tree_5_3_u00_r1_network.node[68].core_layer 	interests[68] 	11899
scalar tree_5_3_u00_r1_network.node[68].core_layer 	data[68] 	8652
scalar tree_5_3_u00_r1_network.node[68].content_store 	p_hit[68] 	0.27288007395579
scalar tree_5_3_u00_r1_network.node[68].content_store 	hits[68] 	3247
scalar tree_5_3_u00_r1_network.node[68].content_store 	misses[68] 	8652
scalar tree_5_3_u00_r1_network.node[68].content_store 	decision_yes[68] 	19
scalar tree_5_3_u00_r1_network.node[68].content_store 	decision_no[68] 	8633
scalar tree_5_3_u00_r1_network.node[68].content_store 	decision_ratio[68] 	0.0021960240406842
scalar tree_5_3_u00_r1_network.node[69].core_layer 	interests[69] 	11943
scalar tree_5_3_u00_r1_network.node[69].core_layer 	data[69] 	8863
scalar tree_5_3_u00_r1_network.node[69].content_store 	p_hit[69] 	0.25789165201373
scalar tree_5_3_u00_r1_network.node[69].content_store 	hits[69] 	3080
scalar tree_5_3_u00_r1_network.node[69].content_store 	misses[69] 	8863
scalar tree_5_3_u00_r1_network.node[69].content_store 	decision_yes[69] 	16
scalar tree_5_3_u00_r1_network.node[69].content_store 	decision_no[69] 	8847
scalar tree_5_3_u00_r1_network.node[69].content_store 	decision_ratio[69] 	0.0018052578133815
scalar tree_5_3_u00_r1_network.node[70].core_layer 	interests[70] 	12068
scalar tree_5_3_u00_r1_network.node[70].core_layer 	data[70] 	8880
scalar tree_5_3_u00_r1_network.node[70].content_store 	p_hit[70] 	0.26433543254889
scalar tree_5_3_u00_r1_network.node[70].content_store 	hits[70] 	3190
scalar tree_5_3_u00_r1_network.node[70].content_store 	misses[70] 	8878
scalar tree_5_3_u00_r1_network.node[70].content_store 	decision_yes[70] 	16
scalar tree_5_3_u00_r1_network.node[70].content_store 	decision_no[70] 	8864
scalar tree_5_3_u00_r1_network.node[70].content_store 	decision_ratio[70] 	0.0018018018018018
scalar tree_5_3_u00_r1_network.node[71].core_layer 	interests[71] 	12124
scalar tree_5_3_u00_r1_network.node[71].core_layer 	data[71] 	8967
scalar tree_5_3_u00_r1_network.node[71].content_store 	p_hit[71] 	0.26039260969977
scalar tree_5_3_u00_r1_network.node[71].content_store 	hits[71] 	3157
scalar tree_5_3_u00_r1_network.node[71].content_store 	misses[71] 	8967
scalar tree_5_3_u00_r1_network.node[71].content_store 	decision_yes[71] 	19
scalar tree_5_3_u00_r1_network.node[71].content_store 	decision_no[71] 	8948
scalar tree_5_3_u00_r1_network.node[71].content_store 	decision_ratio[71] 	0.0021188803390209
scalar tree_5_3_u00_r1_network.node[72].core_layer 	interests[72] 	11857
scalar tree_5_3_u00_r1_network.node[72].core_layer 	data[72] 	8748
scalar tree_5_3_u00_r1_network.node[72].content_store 	p_hit[72] 	0.26220797840938
scalar tree_5_3_u00_r1_network.node[72].content_store 	hits[72] 	3109
scalar tree_5_3_u00_r1_network.node[72].content_store 	misses[72] 	8748
scalar tree_5_3_u00_r1_network.node[72].content_store 	decision_yes[72] 	19
scalar tree_5_3_u00_r1_network.node[72].content_store 	decision_no[72] 	8729
scalar tree_5_3_u00_r1_network.node[72].content_store 	decision_ratio[72] 	0.0021719250114312
scalar tree_5_3_u00_r1_network.node[73].core_layer 	interests[73] 	11885
scalar tree_5_3_u00_r1_network.node[73].core_layer 	data[73] 	8729
scalar tree_5_3_u00_r1_network.node[73].content_store 	p_hit[73] 	0.26554480437526
scalar tree_5_3_u00_r1_network.node[73].content_store 	hits[73] 	3156
scalar tree_5_3_u00_r1_network.node[73].content_store 	misses[73] 	8729
scalar tree_5_3_u00_r1_network.node[73].content_store 	decision_yes[73] 	13
scalar tree_5_3_u00_r1_network.node[73].content_store 	decision_no[73] 	8716
scalar tree_5_3_u00_r1_network.node[73].content_store 	decision_ratio[73] 	0.0014892885783022
scalar tree_5_3_u00_r1_network.node[74].core_layer 	interests[74] 	12036
scalar tree_5_3_u00_r1_network.node[74].core_layer 	data[74] 	8886
scalar tree_5_3_u00_r1_network.node[74].content_store 	p_hit[74] 	0.2617148554337
scalar tree_5_3_u00_r1_network.node[74].content_store 	hits[74] 	3150
scalar tree_5_3_u00_r1_network.node[74].content_store 	misses[74] 	8886
scalar tree_5_3_u00_r1_network.node[74].content_store 	decision_yes[74] 	17
scalar tree_5_3_u00_r1_network.node[74].content_store 	decision_no[74] 	8869
scalar tree_5_3_u00_r1_network.node[74].content_store 	decision_ratio[74] 	0.0019131217645735
scalar tree_5_3_u00_r1_network.node[75].core_layer 	interests[75] 	12051
scalar tree_5_3_u00_r1_network.node[75].core_layer 	data[75] 	8850
scalar tree_5_3_u00_r1_network.node[75].content_store 	p_hit[75] 	0.2656211102813
scalar tree_5_3_u00_r1_network.node[75].content_store 	hits[75] 	3201
scalar tree_5_3_u00_r1_network.node[75].content_store 	misses[75] 	8850
scalar tree_5_3_u00_r1_network.node[75].content_store 	decision_yes[75] 	18
scalar tree_5_3_u00_r1_network.node[75].content_store 	decision_no[75] 	8832
scalar tree_5_3_u00_r1_network.node[75].content_store 	decision_ratio[75] 	0.0020338983050847
scalar tree_5_3_u00_r1_network.node[76].core_layer 	interests[76] 	12110
scalar tree_5_3_u00_r1_network.node[76].core_layer 	data[76] 	8859
scalar tree_5_3_u00_r1_network.node[76].content_store 	p_hit[76] 	0.26845582163501
scalar tree_5_3_u00_r1_network.node[76].content_store 	hits[76] 	3251
scalar tree_5_3_u00_r1_network.node[76].content_store 	misses[76] 	8859
scalar tree_5_3_u00_r1_network.node[76].content_store 	decision_yes[76] 	15
scalar tree_5_3_u00_r1_network.node[76].content_store 	decision_no[76] 	8844
scalar tree_5_3_u00_r1_network.node[76].content_store 	decision_ratio[76] 	0.001693193362682
scalar tree_5_3_u00_r1_network.node[77].core_layer 	interests[77] 	12129
scalar tree_5_3_u00_r1_network.node[77].core_layer 	data[77] 	8950
scalar tree_5_3_u00_r1_network.node[77].content_store 	p_hit[77] 	0.2620991013274
scalar tree_5_3_u00_r1_network.node[77].content_store 	hits[77] 	3179
scalar tree_5_3_u00_r1_network.node[77].content_store 	misses[77] 	8950
scalar tree_5_3_u00_r1_network.node[77].content_store 	decision_yes[77] 	12
scalar tree_5_3_u00_r1_network.node[77].content_store 	decision_no[77] 	8938
scalar tree_5_3_u00_r1_network.node[77].content_store 	decision_ratio[77] 	0.001340782122905
scalar tree_5_3_u00_r1_network.node[78].core_layer 	interests[78] 	12080
scalar tree_5_3_u00_r1_network.node[78].core_layer 	data[78] 	9023
scalar tree_5_3_u00_r1_network.node[78].content_store 	p_hit[78] 	0.25306291390728
scalar tree_5_3_u00_r1_network.node[78].content_store 	hits[78] 	3057
scalar tree_5_3_u00_r1_network.node[78].content_store 	misses[78] 	9023
scalar tree_5_3_u00_r1_network.node[78].content_store 	decision_yes[78] 	16
scalar tree_5_3_u00_r1_network.node[78].content_store 	decision_no[78] 	9007
scalar tree_5_3_u00_r1_network.node[78].content_store 	decision_ratio[78] 	0.001773246148731
scalar tree_5_3_u00_r1_network.node[79].core_layer 	interests[79] 	11844
scalar tree_5_3_u00_r1_network.node[79].core_layer 	data[79] 	8733
scalar tree_5_3_u00_r1_network.node[79].content_store 	p_hit[79] 	0.26266464032421
scalar tree_5_3_u00_r1_network.node[79].content_store 	hits[79] 	3111
scalar tree_5_3_u00_r1_network.node[79].content_store 	misses[79] 	8733
scalar tree_5_3_u00_r1_network.node[79].content_store 	decision_yes[79] 	20
scalar tree_5_3_u00_r1_network.node[79].content_store 	decision_no[79] 	8713
scalar tree_5_3_u00_r1_network.node[79].content_store 	decision_ratio[79] 	0.0022901637467079
scalar tree_5_3_u00_r1_network.node[80].core_layer 	interests[80] 	12153
scalar tree_5_3_u00_r1_network.node[80].core_layer 	data[80] 	8920
scalar tree_5_3_u00_r1_network.node[80].content_store 	p_hit[80] 	0.26610713404098
scalar tree_5_3_u00_r1_network.node[80].content_store 	hits[80] 	3234
scalar tree_5_3_u00_r1_network.node[80].content_store 	misses[80] 	8919
scalar tree_5_3_u00_r1_network.node[80].content_store 	decision_yes[80] 	16
scalar tree_5_3_u00_r1_network.node[80].content_store 	decision_no[80] 	8904
scalar tree_5_3_u00_r1_network.node[80].content_store 	decision_ratio[80] 	0.0017937219730942
scalar tree_5_3_u00_r1_network.node[81].core_layer 	interests[81] 	12116
scalar tree_5_3_u00_r1_network.node[81].core_layer 	data[81] 	8931
scalar tree_5_3_u00_r1_network.node[81].content_store 	p_hit[81] 	0.26287553648069
scalar tree_5_3_u00_r1_network.node[81].content_store 	hits[81] 	3185
scalar tree_5_3_u00_r1_network.node[81].content_store 	misses[81] 	8931
scalar tree_5_3_u00_r1_network.node[81].content_store 	decision_yes[81] 	17
scalar tree_5_3_u00_r1_network.node[81].content_store 	decision_no[81] 	8914
scalar tree_5_3_u00_r1_network.node[81].content_store 	decision_ratio[81] 	0.0019034822528272
scalar tree_5_3_u00_r1_network.node[82].core_layer 	interests[82] 	12183
scalar tree_5_3_u00_r1_network.node[82].core_layer 	data[82] 	8929
scalar tree_5_3_u00_r1_network.node[82].content_store 	p_hit[82] 	0.26717557251908
scalar tree_5_3_u00_r1_network.node[82].content_store 	hits[82] 	3255
scalar tree_5_3_u00_r1_network.node[82].content_store 	misses[82] 	8928
scalar tree_5_3_u00_r1_network.node[82].content_store 	decision_yes[82] 	17
scalar tree_5_3_u00_r1_network.node[82].content_store 	decision_no[82] 	8912
scalar tree_5_3_u00_r1_network.node[82].content_store 	decision_ratio[82] 	0.0019039086123866
scalar tree_5_3_u00_r1_network.node[83].core_layer 	interests[83] 	12015
scalar tree_5_3_u00_r1_network.node[83].core_layer 	data[83] 	8789
scalar tree_5_3_u00_r1_network.node[83].content_store 	p_hit[83] 	0.26849771119434
scalar tree_5_3_u00_r1_network.node[83].content_store 	hits[83] 	3226
scalar tree_5_3_u00_r1_network.node[83].content_store 	misses[83] 	8789
scalar tree_5_3_u00_r1_network.node[83].content_store 	decision_yes[83] 	13
scalar tree_5_3_u00_r1_network.node[83].content_store 	decision_no[83] 	8776
scalar tree_5_3_u00_r1_network.node[83].content_store 	decision_ratio[83] 	0.0014791216293094
scalar tree_5_3_u00_r1_network.node[84].core_layer 	interests[84] 	12131
scalar tree_5_3_u00_r1_network.node[84].core_layer 	data[84] 	8969
scalar tree_5_3_u00_r1_network.node[84].content_store 	p_hit[84] 	0.26065452147391
scalar tree_5_3_u00_r1_network.node[84].content_store 	hits[84] 	3162
scalar tree_5_3_u00_r1_network.node[84].content_store 	misses[84] 	8969
scalar tree_5_3_u00_r1_network.node[84].content_store 	decision_yes[84] 	16
scalar tree_5_3_u00_r1_network.node[84].content_store 	decision_no[84] 	8953
scalar tree_5_3_u00_r1_network.node[84].content_store 	decision_ratio[84] 	0.0017839223993756
scalar tree_5_3_u00_r1_network.node[85].core_layer 	interests[85] 	11963
scalar tree_5_3_u00_r1_network.node[85].core_layer 	data[85] 	8734
scalar tree_5_3_u00_r1_network.node[85].content_store 	p_hit[85] 	0.26983198194433
scalar tree_5_3_u00_r1_network.node[85].content_store 	hits[85] 	3228
scalar tree_5_3_u00_r1_network.node[85].content_store 	misses[85] 	8735
scalar tree_5_3_u00_r1_network.node[85].content_store 	decision_yes[85] 	11
scalar tree_5_3_u00_r1_network.node[85].content_store 	decision_no[85] 	8723
scalar tree_5_3_u00_r1_network.node[85].content_store 	decision_ratio[85] 	0.0012594458438287
scalar tree_5_3_u00_r1_network.node[86].core_layer 	interests[86] 	11967
scalar tree_5_3_u00_r1_network.node[86].core_layer 	data[86] 	8811
scalar tree_5_3_u00_r1_network.node[86].content_store 	p_hit[86] 	0.26372524442216
scalar tree_5_3_u00_r1_network.node[86].content_store 	hits[86] 	3156
scalar tree_5_3_u00_r1_network.node[86].content_store 	misses[86] 	8811
scalar tree_5_3_u00_r1_network.node[86].content_store 	decision_yes[86] 	17
scalar tree_5_3_u00_r1_network.node[86].content_store 	decision_no[86] 	8794
scalar tree_5_3_u00_r1_network.node[86].content_store 	decision_ratio[86] 	0.0019294064237884
scalar tree_5_3_u00_r1_network.node[87].core_layer 	interests[87] 	12019
scalar tree_5_3_u00_r1_network.node[87].core_layer 	data[87] 	8961
scalar tree_5_3_u00_r1_network.node[87].content_store 	p_hit[87] 	0.25443048506531
scalar tree_5_3_u00_r1_network.node[87].content_store 	hits[87] 	3058
scalar tree_5_3_u00_r1_network.node[87].content_store 	misses[87] 	8961
scalar tree_5_3_u00_r1_network.node[87].content_store 	decision_yes[87] 	17
scalar tree_5_3_u00_r1_network.node[87].content_store 	decision_no[87] 	8944
scalar tree_5_3_u00_r1_network.node[87].content_store 	decision_ratio[87] 	0.0018971096975784
scalar tree_5_3_u00_r1_network.node[88].core_layer 	interests[88] 	12089
scalar tree_5_3_u00_r1_network.node[88].core_layer 	data[88] 	8903
scalar tree_5_3_u00_r1_network.node[88].content_store 	p_hit[88] 	0.26346265199768
scalar tree_5_3_u00_r1_network.node[88].content_store 	hits[88] 	3185
scalar tree_5_3_u00_r1_network.node[88].content_store 	misses[88] 	8904
scalar tree_5_3_u00_r1_network.node[88].content_store 	decision_yes[88] 	17
scalar tree_5_3_u00_r1_network.node[88].content_store 	decision_no[88] 	8886
scalar tree_5_3_u00_r1_network.node[88].content_store 	decision_ratio[88] 	0.0019094687184095
scalar tree_5_3_u00_r1_network.node[89].core_layer 	interests[89] 	12169
scalar tree_5_3_u00_r1_network.node[89].core_layer 	data[89] 	8918
scalar tree_5_3_u00_r1_network.node[89].content_store 	p_hit[89] 	0.26715424439149
scalar tree_5_3_u00_r1_network.node[89].content_store 	hits[89] 	3251
scalar tree_5_3_u00_r1_network.node[89].content_store 	misses[89] 	8918
scalar tree_5_3_u00_r1_network.node[89].content_store 	decision_yes[89] 	20
scalar tree_5_3_u00_r1_network.node[89].content_store 	decision_no[89] 	8898
scalar tree_5_3_u00_r1_network.node[89].content_store 	decision_ratio[89] 	0.0022426553038798
scalar tree_5_3_u00_r1_network.node[90].core_layer 	interests[90] 	12139
scalar tree_5_3_u00_r1_network.node[90].core_layer 	data[90] 	8930
scalar tree_5_3_u00_r1_network.node[90].content_store 	p_hit[90] 	0.26435455968366
scalar tree_5_3_u00_r1_network.node[90].content_store 	hits[90] 	3209
scalar tree_5_3_u00_r1_network.node[90].content_store 	misses[90] 	8930
scalar tree_5_3_u00_r1_network.node[90].content_store 	decision_yes[90] 	14
scalar tree_5_3_u00_r1_network.node[90].content_store 	decision_no[90] 	8916
scalar tree_5_3_u00_r1_network.node[90].content_store 	decision_ratio[90] 	0.0015677491601344
scalar tree_5_3_u00_r1_network.node[91].core_layer 	interests[91] 	11833
scalar tree_5_3_u00_r1_network.node[91].core_layer 	data[91] 	8963
scalar tree_5_3_u00_r1_network.node[91].content_store 	p_hit[91] 	0.24254204343784
scalar tree_5_3_u00_r1_network.node[91].content_store 	hits[91] 	2870
scalar tree_5_3_u00_r1_network.node[91].content_store 	misses[91] 	8963
scalar tree_5_3_u00_r1_network.node[91].content_store 	decision_yes[91] 	17
scalar tree_5_3_u00_r1_network.node[91].content_store 	decision_no[91] 	8946
scalar tree_5_3_u00_r1_network.node[91].content_store 	decision_ratio[91] 	0.001896686377329
scalar tree_5_3_u00_r1_network.node[92].core_layer 	interests[92] 	11964
scalar tree_5_3_u00_r1_network.node[92].core_layer 	data[92] 	8896
scalar tree_5_3_u00_r1_network.node[92].content_store 	p_hit[92] 	0.25643597459044
scalar tree_5_3_u00_r1_network.node[92].content_store 	hits[92] 	3068
scalar tree_5_3_u00_r1_network.node[92].content_store 	misses[92] 	8896
scalar tree_5_3_u00_r1_network.node[92].content_store 	decision_yes[92] 	13
scalar tree_5_3_u00_r1_network.node[92].content_store 	decision_no[92] 	8883
scalar tree_5_3_u00_r1_network.node[92].content_store 	decision_ratio[92] 	0.0014613309352518
scalar tree_5_3_u00_r1_network.node[93].core_layer 	interests[93] 	11681
scalar tree_5_3_u00_r1_network.node[93].core_layer 	data[93] 	8539
scalar tree_5_3_u00_r1_network.node[93].content_store 	p_hit[93] 	0.26898381987844
scalar tree_5_3_u00_r1_network.node[93].content_store 	hits[93] 	3142
scalar tree_5_3_u00_r1_network.node[93].content_store 	misses[93] 	8539
scalar tree_5_3_u00_r1_network.node[93].content_store 	decision_yes[93] 	8
scalar tree_5_3_u00_r1_network.node[93].content_store 	decision_no[93] 	8531
scalar tree_5_3_u00_r1_network.node[93].content_store 	decision_ratio[93] 	0.00093687785454971
scalar tree_5_3_u00_r1_network.node[94].core_layer 	interests[94] 	11890
scalar tree_5_3_u00_r1_network.node[94].core_layer 	data[94] 	8676
scalar tree_5_3_u00_r1_network.node[94].content_store 	p_hit[94] 	0.27031118587048
scalar tree_5_3_u00_r1_network.node[94].content_store 	hits[94] 	3214
scalar tree_5_3_u00_r1_network.node[94].content_store 	misses[94] 	8676
scalar tree_5_3_u00_r1_network.node[94].content_store 	decision_yes[94] 	17
scalar tree_5_3_u00_r1_network.node[94].content_store 	decision_no[94] 	8659
scalar tree_5_3_u00_r1_network.node[94].content_store 	decision_ratio[94] 	0.001959428307976
scalar tree_5_3_u00_r1_network.node[95].core_layer 	interests[95] 	11900
scalar tree_5_3_u00_r1_network.node[95].core_layer 	data[95] 	8701
scalar tree_5_3_u00_r1_network.node[95].content_store 	p_hit[95] 	0.26882352941176
scalar tree_5_3_u00_r1_network.node[95].content_store 	hits[95] 	3199
scalar tree_5_3_u00_r1_network.node[95].content_store 	misses[95] 	8701
scalar tree_5_3_u00_r1_network.node[95].content_store 	decision_yes[95] 	15
scalar tree_5_3_u00_r1_network.node[95].content_store 	decision_no[95] 	8686
scalar tree_5_3_u00_r1_network.node[95].content_store 	decision_ratio[95] 	0.0017239397770371
scalar tree_5_3_u00_r1_network.node[96].core_layer 	interests[96] 	12161
scalar tree_5_3_u00_r1_network.node[96].core_layer 	data[96] 	8833
scalar tree_5_3_u00_r1_network.node[96].content_store 	p_hit[96] 	0.27374393553162
scalar tree_5_3_u00_r1_network.node[96].content_store 	hits[96] 	3329
scalar tree_5_3_u00_r1_network.node[96].content_store 	misses[96] 	8832
scalar tree_5_3_u00_r1_network.node[96].content_store 	decision_yes[96] 	13
scalar tree_5_3_u00_r1_network.node[96].content_store 	decision_no[96] 	8820
scalar tree_5_3_u00_r1_network.node[96].content_store 	decision_ratio[96] 	0.0014717536510812
scalar tree_5_3_u00_r1_network.node[97].core_layer 	interests[97] 	12078
scalar tree_5_3_u00_r1_network.node[97].core_layer 	data[97] 	8953
scalar tree_5_3_u00_r1_network.node[97].content_store 	p_hit[97] 	0.25865209471767
scalar tree_5_3_u00_r1_network.node[97].content_store 	hits[97] 	3124
scalar tree_5_3_u00_r1_network.node[97].content_store 	misses[97] 	8954
scalar tree_5_3_u00_r1_network.node[97].content_store 	decision_yes[97] 	8
scalar tree_5_3_u00_r1_network.node[97].content_store 	decision_no[97] 	8945
scalar tree_5_3_u00_r1_network.node[97].content_store 	decision_ratio[97] 	0.00089355523288283
scalar tree_5_3_u00_r1_network.node[98].core_layer 	interests[98] 	12113
scalar tree_5_3_u00_r1_network.node[98].core_layer 	data[98] 	9092
scalar tree_5_3_u00_r1_network.node[98].content_store 	p_hit[98] 	0.24940146949558
scalar tree_5_3_u00_r1_network.node[98].content_store 	hits[98] 	3021
scalar tree_5_3_u00_r1_network.node[98].content_store 	misses[98] 	9092
scalar tree_5_3_u00_r1_network.node[98].content_store 	decision_yes[98] 	17
scalar tree_5_3_u00_r1_network.node[98].content_store 	decision_no[98] 	9075
scalar tree_5_3_u00_r1_network.node[98].content_store 	decision_ratio[98] 	0.0018697756269248
scalar tree_5_3_u00_r1_network.node[99].core_layer 	interests[99] 	12006
scalar tree_5_3_u00_r1_network.node[99].core_layer 	data[99] 	8975
scalar tree_5_3_u00_r1_network.node[99].content_store 	p_hit[99] 	0.25245710478094
scalar tree_5_3_u00_r1_network.node[99].content_store 	hits[99] 	3031
scalar tree_5_3_u00_r1_network.node[99].content_store 	misses[99] 	8975
scalar tree_5_3_u00_r1_network.node[99].content_store 	decision_yes[99] 	9
scalar tree_5_3_u00_r1_network.node[99].content_store 	decision_no[99] 	8966
scalar tree_5_3_u00_r1_network.node[99].content_store 	decision_ratio[99] 	0.0010027855153203
scalar tree_5_3_u00_r1_network.node[100].core_layer 	interests[100] 	12025
scalar tree_5_3_u00_r1_network.node[100].core_layer 	data[100] 	8775
scalar tree_5_3_u00_r1_network.node[100].content_store 	p_hit[100] 	0.27027027027027
scalar tree_5_3_u00_r1_network.node[100].content_store 	hits[100] 	3250
scalar tree_5_3_u00_r1_network.node[100].content_store 	misses[100] 	8775
scalar tree_5_3_u00_r1_network.node[100].content_store 	decision_yes[100] 	20
scalar tree_5_3_u00_r1_network.node[100].content_store 	decision_no[100] 	8755
scalar tree_5_3_u00_r1_network.node[100].content_store 	decision_ratio[100] 	0.0022792022792023
scalar tree_5_3_u00_r1_network.node[101].core_layer 	interests[101] 	12101
scalar tree_5_3_u00_r1_network.node[101].core_layer 	data[101] 	8997
scalar tree_5_3_u00_r1_network.node[101].content_store 	p_hit[101] 	0.25650772663416
scalar tree_5_3_u00_r1_network.node[101].content_store 	hits[101] 	3104
scalar tree_5_3_u00_r1_network.node[101].content_store 	misses[101] 	8997
scalar tree_5_3_u00_r1_network.node[101].content_store 	decision_yes[101] 	17
scalar tree_5_3_u00_r1_network.node[101].content_store 	decision_no[101] 	8980
scalar tree_5_3_u00_r1_network.node[101].content_store 	decision_ratio[101] 	0.001889518728465
scalar tree_5_3_u00_r1_network.node[102].core_layer 	interests[102] 	12066
scalar tree_5_3_u00_r1_network.node[102].core_layer 	data[102] 	8774
scalar tree_5_3_u00_r1_network.node[102].content_store 	p_hit[102] 	0.27283275319078
scalar tree_5_3_u00_r1_network.node[102].content_store 	hits[102] 	3292
scalar tree_5_3_u00_r1_network.node[102].content_store 	misses[102] 	8774
scalar tree_5_3_u00_r1_network.node[102].content_store 	decision_yes[102] 	14
scalar tree_5_3_u00_r1_network.node[102].content_store 	decision_no[102] 	8760
scalar tree_5_3_u00_r1_network.node[102].content_store 	decision_ratio[102] 	0.0015956234328698
scalar tree_5_3_u00_r1_network.node[103].core_layer 	interests[103] 	12134
scalar tree_5_3_u00_r1_network.node[103].core_layer 	data[103] 	8858
scalar tree_5_3_u00_r1_network.node[103].content_store 	p_hit[103] 	0.26990275259601
scalar tree_5_3_u00_r1_network.node[103].content_store 	hits[103] 	3275
scalar tree_5_3_u00_r1_network.node[103].content_store 	misses[103] 	8859
scalar tree_5_3_u00_r1_network.node[103].content_store 	decision_yes[103] 	15
scalar tree_5_3_u00_r1_network.node[103].content_store 	decision_no[103] 	8843
scalar tree_5_3_u00_r1_network.node[103].content_store 	decision_ratio[103] 	0.0016933845111763
scalar tree_5_3_u00_r1_network.node[104].core_layer 	interests[104] 	12081
scalar tree_5_3_u00_r1_network.node[104].core_layer 	data[104] 	8987
scalar tree_5_3_u00_r1_network.node[104].content_store 	p_hit[104] 	0.25610462710041
scalar tree_5_3_u00_r1_network.node[104].content_store 	hits[104] 	3094
scalar tree_5_3_u00_r1_network.node[104].content_store 	misses[104] 	8987
scalar tree_5_3_u00_r1_network.node[104].content_store 	decision_yes[104] 	11
scalar tree_5_3_u00_r1_network.node[104].content_store 	decision_no[104] 	8976
scalar tree_5_3_u00_r1_network.node[104].content_store 	decision_ratio[104] 	0.0012239902080783
scalar tree_5_3_u00_r1_network.node[105].core_layer 	interests[105] 	12051
scalar tree_5_3_u00_r1_network.node[105].core_layer 	data[105] 	8870
scalar tree_5_3_u00_r1_network.node[105].content_store 	p_hit[105] 	0.2638785163057
scalar tree_5_3_u00_r1_network.node[105].content_store 	hits[105] 	3180
scalar tree_5_3_u00_r1_network.node[105].content_store 	misses[105] 	8871
scalar tree_5_3_u00_r1_network.node[105].content_store 	decision_yes[105] 	15
scalar tree_5_3_u00_r1_network.node[105].content_store 	decision_no[105] 	8855
scalar tree_5_3_u00_r1_network.node[105].content_store 	decision_ratio[105] 	0.0016910935738444
scalar tree_5_3_u00_r1_network.node[106].core_layer 	interests[106] 	11999
scalar tree_5_3_u00_r1_network.node[106].core_layer 	data[106] 	8910
scalar tree_5_3_u00_r1_network.node[106].content_store 	p_hit[106] 	0.25743811984332
scalar tree_5_3_u00_r1_network.node[106].content_store 	hits[106] 	3089
scalar tree_5_3_u00_r1_network.node[106].content_store 	misses[106] 	8910
scalar tree_5_3_u00_r1_network.node[106].content_store 	decision_yes[106] 	15
scalar tree_5_3_u00_r1_network.node[106].content_store 	decision_no[106] 	8895
scalar tree_5_3_u00_r1_network.node[106].content_store 	decision_ratio[106] 	0.0016835016835017
scalar tree_5_3_u00_r1_network.node[107].core_layer 	interests[107] 	12280
scalar tree_5_3_u00_r1_network.node[107].core_layer 	data[107] 	9028
scalar tree_5_3_u00_r1_network.node[107].content_store 	p_hit[107] 	0.26482084690554
scalar tree_5_3_u00_r1_network.node[107].content_store 	hits[107] 	3252
scalar tree_5_3_u00_r1_network.node[107].content_store 	misses[107] 	9028
scalar tree_5_3_u00_r1_network.node[107].content_store 	decision_yes[107] 	18
scalar tree_5_3_u00_r1_network.node[107].content_store 	decision_no[107] 	9010
scalar tree_5_3_u00_r1_network.node[107].content_store 	decision_ratio[107] 	0.0019937970757643
scalar tree_5_3_u00_r1_network.node[108].core_layer 	interests[108] 	11917
scalar tree_5_3_u00_r1_network.node[108].core_layer 	data[108] 	8767
scalar tree_5_3_u00_r1_network.node[108].content_store 	p_hit[108] 	0.26432827053789
scalar tree_5_3_u00_r1_network.node[108].content_store 	hits[108] 	3150
scalar tree_5_3_u00_r1_network.node[108].content_store 	misses[108] 	8767
scalar tree_5_3_u00_r1_network.node[108].content_store 	decision_yes[108] 	18
scalar tree_5_3_u00_r1_network.node[108].content_store 	decision_no[108] 	8749
scalar tree_5_3_u00_r1_network.node[108].content_store 	decision_ratio[108] 	0.0020531538724763
scalar tree_5_3_u00_r1_network.node[109].core_layer 	interests[109] 	11793
scalar tree_5_3_u00_r1_network.node[109].core_layer 	data[109] 	8759
scalar tree_5_3_u00_r1_network.node[109].content_store 	p_hit[109] 	0.25718646654795
scalar tree_5_3_u00_r1_network.node[109].content_store 	hits[109] 	3033
scalar tree_5_3_u00_r1_network.node[109].content_store 	misses[109] 	8760
scalar tree_5_3_u00_r1_network.node[109].content_store 	decision_yes[109] 	17
scalar tree_5_3_u00_r1_network.node[109].content_store 	decision_no[109] 	8742
scalar tree_5_3_u00_r1_network.node[109].content_store 	decision_ratio[109] 	0.0019408608288617
scalar tree_5_3_u00_r1_network.node[110].core_layer 	interests[110] 	11891
scalar tree_5_3_u00_r1_network.node[110].core_layer 	data[110] 	8799
scalar tree_5_3_u00_r1_network.node[110].content_store 	p_hit[110] 	0.26002859305357
scalar tree_5_3_u00_r1_network.node[110].content_store 	hits[110] 	3092
scalar tree_5_3_u00_r1_network.node[110].content_store 	misses[110] 	8799
scalar tree_5_3_u00_r1_network.node[110].content_store 	decision_yes[110] 	19
scalar tree_5_3_u00_r1_network.node[110].content_store 	decision_no[110] 	8780
scalar tree_5_3_u00_r1_network.node[110].content_store 	decision_ratio[110] 	0.0021593362882146
scalar tree_5_3_u00_r1_network.node[111].core_layer 	interests[111] 	12041
scalar tree_5_3_u00_r1_network.node[111].core_layer 	data[111] 	8831
scalar tree_5_3_u00_r1_network.node[111].content_store 	p_hit[111] 	0.26667220330537
scalar tree_5_3_u00_r1_network.node[111].content_store 	hits[111] 	3211
scalar tree_5_3_u00_r1_network.node[111].content_store 	misses[111] 	8830
scalar tree_5_3_u00_r1_network.node[111].content_store 	decision_yes[111] 	9
scalar tree_5_3_u00_r1_network.node[111].content_store 	decision_no[111] 	8822
scalar tree_5_3_u00_r1_network.node[111].content_store 	decision_ratio[111] 	0.0010191371305628
scalar tree_5_3_u00_r1_network.node[112].core_layer 	interests[112] 	12055
scalar tree_5_3_u00_r1_network.node[112].core_layer 	data[112] 	8781
scalar tree_5_3_u00_r1_network.node[112].content_store 	p_hit[112] 	0.27158855246786
scalar tree_5_3_u00_r1_network.node[112].content_store 	hits[112] 	3274
scalar tree_5_3_u00_r1_network.node[112].content_store 	misses[112] 	8781
scalar tree_5_3_u00_r1_network.node[112].content_store 	decision_yes[112] 	12
scalar tree_5_3_u00_r1_network.node[112].content_store 	decision_no[112] 	8769
scalar tree_5_3_u00_r1_network.node[112].content_store 	decision_ratio[112] 	0.0013665869490946
scalar tree_5_3_u00_r1_network.node[113].core_layer 	interests[113] 	11865
scalar tree_5_3_u00_r1_network.node[113].core_layer 	data[113] 	8842
scalar tree_5_3_u00_r1_network.node[113].content_store 	p_hit[113] 	0.25478297513696
scalar tree_5_3_u00_r1_network.node[113].content_store 	hits[113] 	3023
scalar tree_5_3_u00_r1_network.node[113].content_store 	misses[113] 	8842
scalar tree_5_3_u00_r1_network.node[113].content_store 	decision_yes[113] 	14
scalar tree_5_3_u00_r1_network.node[113].content_store 	decision_no[113] 	8828
scalar tree_5_3_u00_r1_network.node[113].content_store 	decision_ratio[113] 	0.0015833521827641
scalar tree_5_3_u00_r1_network.node[114].core_layer 	interests[114] 	11887
scalar tree_5_3_u00_r1_network.node[114].core_layer 	data[114] 	8809
scalar tree_5_3_u00_r1_network.node[114].content_store 	p_hit[114] 	0.25893833599731
scalar tree_5_3_u00_r1_network.node[114].content_store 	hits[114] 	3078
scalar tree_5_3_u00_r1_network.node[114].content_store 	misses[114] 	8809
scalar tree_5_3_u00_r1_network.node[114].content_store 	decision_yes[114] 	15
scalar tree_5_3_u00_r1_network.node[114].content_store 	decision_no[114] 	8794
scalar tree_5_3_u00_r1_network.node[114].content_store 	decision_ratio[114] 	0.0017028039505052
scalar tree_5_3_u00_r1_network.node[115].core_layer 	interests[115] 	12230
scalar tree_5_3_u00_r1_network.node[115].core_layer 	data[115] 	8965
scalar tree_5_3_u00_r1_network.node[115].content_store 	p_hit[115] 	0.26688470973017
scalar tree_5_3_u00_r1_network.node[115].content_store 	hits[115] 	3264
scalar tree_5_3_u00_r1_network.node[115].content_store 	misses[115] 	8966
scalar tree_5_3_u00_r1_network.node[115].content_store 	decision_yes[115] 	19
scalar tree_5_3_u00_r1_network.node[115].content_store 	decision_no[115] 	8946
scalar tree_5_3_u00_r1_network.node[115].content_store 	decision_ratio[115] 	0.0021193530395984
scalar tree_5_3_u00_r1_network.node[116].core_layer 	interests[116] 	11960
scalar tree_5_3_u00_r1_network.node[116].core_layer 	data[116] 	8750
scalar tree_5_3_u00_r1_network.node[116].content_store 	p_hit[116] 	0.2683110367893
scalar tree_5_3_u00_r1_network.node[116].content_store 	hits[116] 	3209
scalar tree_5_3_u00_r1_network.node[116].content_store 	misses[116] 	8751
scalar tree_5_3_u00_r1_network.node[116].content_store 	decision_yes[116] 	19
scalar tree_5_3_u00_r1_network.node[116].content_store 	decision_no[116] 	8731
scalar tree_5_3_u00_r1_network.node[116].content_store 	decision_ratio[116] 	0.0021714285714286
scalar tree_5_3_u00_r1_network.node[117].core_layer 	interests[117] 	11940
scalar tree_5_3_u00_r1_network.node[117].core_layer 	data[117] 	8670
scalar tree_5_3_u00_r1_network.node[117].content_store 	p_hit[117] 	0.27386934673367
scalar tree_5_3_u00_r1_network.node[117].content_store 	hits[117] 	3270
scalar tree_5_3_u00_r1_network.node[117].content_store 	misses[117] 	8670
scalar tree_5_3_u00_r1_network.node[117].content_store 	decision_yes[117] 	11
scalar tree_5_3_u00_r1_network.node[117].content_store 	decision_no[117] 	8659
scalar tree_5_3_u00_r1_network.node[117].content_store 	decision_ratio[117] 	0.0012687427912341
scalar tree_5_3_u00_r1_network.node[118].core_layer 	interests[118] 	11786
scalar tree_5_3_u00_r1_network.node[118].core_layer 	data[118] 	8789
scalar tree_5_3_u00_r1_network.node[118].content_store 	p_hit[118] 	0.25419989818429
scalar tree_5_3_u00_r1_network.node[118].content_store 	hits[118] 	2996
scalar tree_5_3_u00_r1_network.node[118].content_store 	misses[118] 	8790
scalar tree_5_3_u00_r1_network.node[118].content_store 	decision_yes[118] 	10
scalar tree_5_3_u00_r1_network.node[118].content_store 	decision_no[118] 	8779
scalar tree_5_3_u00_r1_network.node[118].content_store 	decision_ratio[118] 	0.0011377858686995
scalar tree_5_3_u00_r1_network.node[119].core_layer 	interests[119] 	12005
scalar tree_5_3_u00_r1_network.node[119].core_layer 	data[119] 	8912
scalar tree_5_3_u00_r1_network.node[119].content_store 	p_hit[119] 	0.25772594752187
scalar tree_5_3_u00_r1_network.node[119].content_store 	hits[119] 	3094
scalar tree_5_3_u00_r1_network.node[119].content_store 	misses[119] 	8911
scalar tree_5_3_u00_r1_network.node[119].content_store 	decision_yes[119] 	20
scalar tree_5_3_u00_r1_network.node[119].content_store 	decision_no[119] 	8892
scalar tree_5_3_u00_r1_network.node[119].content_store 	decision_ratio[119] 	0.0022441651705566
scalar tree_5_3_u00_r1_network.node[120].core_layer 	interests[120] 	11923
scalar tree_5_3_u00_r1_network.node[120].core_layer 	data[120] 	8735
scalar tree_5_3_u00_r1_network.node[120].content_store 	p_hit[120] 	0.26738237020884
scalar tree_5_3_u00_r1_network.node[120].content_store 	hits[120] 	3188
scalar tree_5_3_u00_r1_network.node[120].content_store 	misses[120] 	8735
scalar tree_5_3_u00_r1_network.node[120].content_store 	decision_yes[120] 	14
scalar tree_5_3_u00_r1_network.node[120].content_store 	decision_no[120] 	8721
scalar tree_5_3_u00_r1_network.node[120].content_store 	decision_ratio[120] 	0.0016027475672582
scalar tree_5_3_u00_r1_network.client[40] 	hdistance[40] 	3.3301712558764
scalar tree_5_3_u00_r1_network.client[40] 	downloads[40] 	11912
scalar tree_5_3_u00_r1_network.client[40] 	avg_time[40] 	0.005420581333
scalar tree_5_3_u00_r1_network.client[41] 	hdistance[41] 	3.3502810638476
scalar tree_5_3_u00_r1_network.client[41] 	downloads[41] 	11919
scalar tree_5_3_u00_r1_network.client[41] 	avg_time[41] 	0.005449892397
scalar tree_5_3_u00_r1_network.client[42] 	hdistance[42] 	3.3393592869755
scalar tree_5_3_u00_r1_network.client[42] 	downloads[42] 	11893
scalar tree_5_3_u00_r1_network.client[42] 	avg_time[42] 	0.005429547693
scalar tree_5_3_u00_r1_network.client[43] 	hdistance[43] 	3.3462634048257
scalar tree_5_3_u00_r1_network.client[43] 	downloads[43] 	11936
scalar tree_5_3_u00_r1_network.client[43] 	avg_time[43] 	0.005442188712
scalar tree_5_3_u00_r1_network.client[44] 	hdistance[44] 	3.3397935003385
scalar tree_5_3_u00_r1_network.client[44] 	downloads[44] 	11816
scalar tree_5_3_u00_r1_network.client[44] 	avg_time[44] 	0.005439310401
scalar tree_5_3_u00_r1_network.client[45] 	hdistance[45] 	3.3274077783342
scalar tree_5_3_u00_r1_network.client[45] 	downloads[45] 	11982
scalar tree_5_3_u00_r1_network.client[45] 	avg_time[45] 	0.005413784342
scalar tree_5_3_u00_r1_network.client[46] 	hdistance[46] 	3.3699339851258
scalar tree_5_3_u00_r1_network.client[46] 	downloads[46] 	11967
scalar tree_5_3_u00_r1_network.client[46] 	avg_time[46] 	0.005479064416
scalar tree_5_3_u00_r1_network.client[47] 	hdistance[47] 	3.3630330180853
scalar tree_5_3_u00_r1_network.client[47] 	downloads[47] 	12054
scalar tree_5_3_u00_r1_network.client[47] 	avg_time[47] 	0.005467061895
scalar tree_5_3_u00_r1_network.client[48] 	hdistance[48] 	3.3467559648388
scalar tree_5_3_u00_r1_network.client[48] 	downloads[48] 	11945
scalar tree_5_3_u00_r1_network.client[48] 	avg_time[48] 	0.005444115892
scalar tree_5_3_u00_r1_network.client[49] 	hdistance[49] 	3.3479710498496
scalar tree_5_3_u00_r1_network.client[49] 	downloads[49] 	12297
scalar tree_5_3_u00_r1_network.client[49] 	avg_time[49] 	0.005450757298
scalar tree_5_3_u00_r1_network.client[50] 	hdistance[50] 	3.3389787664307
scalar tree_5_3_u00_r1_network.client[50] 	downloads[50] 	11868
scalar tree_5_3_u00_r1_network.client[50] 	avg_time[50] 	0.005432251863
scalar tree_5_3_u00_r1_network.client[51] 	hdistance[51] 	3.3705143782908
scalar tree_5_3_u00_r1_network.client[51] 	downloads[51] 	12345
scalar tree_5_3_u00_r1_network.client[51] 	avg_time[51] 	0.005481730398
scalar tree_5_3_u00_r1_network.client[52] 	hdistance[52] 	3.3704945515507
scalar tree_5_3_u00_r1_network.client[52] 	downloads[52] 	11930
scalar tree_5_3_u00_r1_network.client[52] 	avg_time[52] 	0.005482922563
scalar tree_5_3_u00_r1_network.client[53] 	hdistance[53] 	3.3887352275585
scalar tree_5_3_u00_r1_network.client[53] 	downloads[53] 	11931
scalar tree_5_3_u00_r1_network.client[53] 	avg_time[53] 	0.005515880023
scalar tree_5_3_u00_r1_network.client[54] 	hdistance[54] 	3.331566304978
scalar tree_5_3_u00_r1_network.client[54] 	downloads[54] 	12073
scalar tree_5_3_u00_r1_network.client[54] 	avg_time[54] 	0.005421447359
scalar tree_5_3_u00_r1_network.client[55] 	hdistance[55] 	3.3845047788209
scalar tree_5_3_u00_r1_network.client[55] 	downloads[55] 	11823
scalar tree_5_3_u00_r1_network.client[55] 	avg_time[55] 	0.005502322999
scalar tree_5_3_u00_r1_network.client[56] 	hdistance[56] 	3.3592008585817
scalar tree_5_3_u00_r1_network.client[56] 	downloads[56] 	12113
scalar tree_5_3_u00_r1_network.client[56] 	avg_time[56] 	0.005465034523
scalar tree_5_3_u00_r1_network.client[57] 	hdistance[57] 	3.3860086407444
scalar tree_5_3_u00_r1_network.client[57] 	downloads[57] 	12036
scalar tree_5_3_u00_r1_network.client[57] 	avg_time[57] 	0.005499602454
scalar tree_5_3_u00_r1_network.client[58] 	hdistance[58] 	3.3591026603286
scalar tree_5_3_u00_r1_network.client[58] 	downloads[58] 	11991
scalar tree_5_3_u00_r1_network.client[58] 	avg_time[58] 	0.005456018509
scalar tree_5_3_u00_r1_network.client[59] 	hdistance[59] 	3.3653032440056
scalar tree_5_3_u00_r1_network.client[59] 	downloads[59] 	12053
scalar tree_5_3_u00_r1_network.client[59] 	avg_time[59] 	0.00546879278
scalar tree_5_3_u00_r1_network.client[60] 	hdistance[60] 	3.3734187612946
scalar tree_5_3_u00_r1_network.client[60] 	downloads[60] 	12174
scalar tree_5_3_u00_r1_network.client[60] 	avg_time[60] 	0.005480857832
scalar tree_5_3_u00_r1_network.client[61] 	hdistance[61] 	3.3328388957561
scalar tree_5_3_u00_r1_network.client[61] 	downloads[61] 	12135
scalar tree_5_3_u00_r1_network.client[61] 	avg_time[61] 	0.005427273438
scalar tree_5_3_u00_r1_network.client[62] 	hdistance[62] 	3.327455281809
scalar tree_5_3_u00_r1_network.client[62] 	downloads[62] 	11852
scalar tree_5_3_u00_r1_network.client[62] 	avg_time[62] 	0.005416466824
scalar tree_5_3_u00_r1_network.client[63] 	hdistance[63] 	3.3399447652523
scalar tree_5_3_u00_r1_network.client[63] 	downloads[63] 	11949
scalar tree_5_3_u00_r1_network.client[63] 	avg_time[63] 	0.005436602572
scalar tree_5_3_u00_r1_network.client[64] 	hdistance[64] 	3.3182735991923
scalar tree_5_3_u00_r1_network.client[64] 	downloads[64] 	11886
scalar tree_5_3_u00_r1_network.client[64] 	avg_time[64] 	0.00539777592
scalar tree_5_3_u00_r1_network.client[65] 	hdistance[65] 	3.348005957306
scalar tree_5_3_u00_r1_network.client[65] 	downloads[65] 	12086
scalar tree_5_3_u00_r1_network.client[65] 	avg_time[65] 	0.005443650781
scalar tree_5_3_u00_r1_network.client[66] 	hdistance[66] 	3.347193877551
scalar tree_5_3_u00_r1_network.client[66] 	downloads[66] 	11760
scalar tree_5_3_u00_r1_network.client[66] 	avg_time[66] 	0.005443551569
scalar tree_5_3_u00_r1_network.client[67] 	hdistance[67] 	3.3519784020923
scalar tree_5_3_u00_r1_network.client[67] 	downloads[67] 	11853
scalar tree_5_3_u00_r1_network.client[67] 	avg_time[67] 	0.005448406718
scalar tree_5_3_u00_r1_network.client[68] 	hdistance[68] 	3.3379275569376
scalar tree_5_3_u00_r1_network.client[68] 	downloads[68] 	11899
scalar tree_5_3_u00_r1_network.client[68] 	avg_time[68] 	0.005426671547
scalar tree_5_3_u00_r1_network.client[69] 	hdistance[69] 	3.3732730469731
scalar tree_5_3_u00_r1_network.client[69] 	downloads[69] 	11943
scalar tree_5_3_u00_r1_network.client[69] 	avg_time[69] 	0.005491917011
scalar tree_5_3_u00_r1_network.client[70] 	hdistance[70] 	3.3731565865783
scalar tree_5_3_u00_r1_network.client[70] 	downloads[70] 	12070
scalar tree_5_3_u00_r1_network.client[70] 	avg_time[70] 	0.005483398486
scalar tree_5_3_u00_r1_network.client[71] 	hdistance[71] 	3.3733091388981
scalar tree_5_3_u00_r1_network.client[71] 	downloads[71] 	12124
scalar tree_5_3_u00_r1_network.client[71] 	avg_time[71] 	0.005483335794
scalar tree_5_3_u00_r1_network.client[72] 	hdistance[72] 	3.3742936661888
scalar tree_5_3_u00_r1_network.client[72] 	downloads[72] 	11857
scalar tree_5_3_u00_r1_network.client[72] 	avg_time[72] 	0.005484634037
scalar tree_5_3_u00_r1_network.client[73] 	hdistance[73] 	3.3506941522928
scalar tree_5_3_u00_r1_network.client[73] 	downloads[73] 	11885
scalar tree_5_3_u00_r1_network.client[73] 	avg_time[73] 	0.005448194053
scalar tree_5_3_u00_r1_network.client[74] 	hdistance[74] 	3.34222333001
scalar tree_5_3_u00_r1_network.client[74] 	downloads[74] 	12036
scalar tree_5_3_u00_r1_network.client[74] 	avg_time[74] 	0.005438680919
scalar tree_5_3_u00_r1_network.client[75] 	hdistance[75] 	3.3267778607584
scalar tree_5_3_u00_r1_network.client[75] 	downloads[75] 	12051
scalar tree_5_3_u00_r1_network.client[75] 	avg_time[75] 	0.005414246901
scalar tree_5_3_u00_r1_network.client[76] 	hdistance[76] 	3.3338563170933
scalar tree_5_3_u00_r1_network.client[76] 	downloads[76] 	12110
scalar tree_5_3_u00_r1_network.client[76] 	avg_time[76] 	0.005422833567
scalar tree_5_3_u00_r1_network.client[77] 	hdistance[77] 	3.3763706818369
scalar tree_5_3_u00_r1_network.client[77] 	downloads[77] 	12129
scalar tree_5_3_u00_r1_network.client[77] 	avg_time[77] 	0.005490237423
scalar tree_5_3_u00_r1_network.client[78] 	hdistance[78] 	3.3788907284768
scalar tree_5_3_u00_r1_network.client[78] 	downloads[78] 	12080
scalar tree_5_3_u00_r1_network.client[78] 	avg_time[78] 	0.005499334717
scalar tree_5_3_u00_r1_network.client[79] 	hdistance[79] 	3.3425363053023
scalar tree_5_3_u00_r1_network.client[79] 	downloads[79] 	11844
scalar tree_5_3_u00_r1_network.client[79] 	avg_time[79] 	0.005439037889
scalar tree_5_3_u00_r1_network.client[80] 	hdistance[80] 	3.3444133618562
scalar tree_5_3_u00_r1_network.client[80] 	downloads[80] 	12154
scalar tree_5_3_u00_r1_network.client[80] 	avg_time[80] 	0.005441333151
scalar tree_5_3_u00_r1_network.client[81] 	hdistance[81] 	3.3612578408716
scalar tree_5_3_u00_r1_network.client[81] 	downloads[81] 	12116
scalar tree_5_3_u00_r1_network.client[81] 	avg_time[81] 	0.005467126577
scalar tree_5_3_u00_r1_network.client[82] 	hdistance[82] 	3.3499671700591
scalar tree_5_3_u00_r1_network.client[82] 	downloads[82] 	12184
scalar tree_5_3_u00_r1_network.client[82] 	avg_time[82] 	0.005450299603
scalar tree_5_3_u00_r1_network.client[83] 	hdistance[83] 	3.3126924677486
scalar tree_5_3_u00_r1_network.client[83] 	downloads[83] 	12015
scalar tree_5_3_u00_r1_network.client[83] 	avg_time[83] 	0.005392256669
scalar tree_5_3_u00_r1_network.client[84] 	hdistance[84] 	3.3637787486605
scalar tree_5_3_u00_r1_network.client[84] 	downloads[84] 	12131
scalar tree_5_3_u00_r1_network.client[84] 	avg_time[84] 	0.005474236544
scalar tree_5_3_u00_r1_network.client[85] 	hdistance[85] 	3.3639023574653
scalar tree_5_3_u00_r1_network.client[85] 	downloads[85] 	11962
scalar tree_5_3_u00_r1_network.client[85] 	avg_time[85] 	0.00547065407
scalar tree_5_3_u00_r1_network.client[86] 	hdistance[86] 	3.3698504219938
scalar tree_5_3_u00_r1_network.client[86] 	downloads[86] 	11967
scalar tree_5_3_u00_r1_network.client[86] 	avg_time[86] 	0.005477393174
scalar tree_5_3_u00_r1_network.client[87] 	hdistance[87] 	3.4061069972543
scalar tree_5_3_u00_r1_network.client[87] 	downloads[87] 	12019
scalar tree_5_3_u00_r1_network.client[87] 	avg_time[87] 	0.005541223374
scalar tree_5_3_u00_r1_network.client[88] 	hdistance[88] 	3.3567174056916
scalar tree_5_3_u00_r1_network.client[88] 	downloads[88] 	12088
scalar tree_5_3_u00_r1_network.client[88] 	avg_time[88] 	0.005455159104
scalar tree_5_3_u00_r1_network.client[89] 	hdistance[89] 	3.3465362807133
scalar tree_5_3_u00_r1_network.client[89] 	downloads[89] 	12169
scalar tree_5_3_u00_r1_network.client[89] 	avg_time[89] 	0.005442512034
scalar tree_5_3_u00_r1_network.client[90] 	hdistance[90] 	3.3700469560919
scalar tree_5_3_u00_r1_network.client[90] 	downloads[90] 	12139
scalar tree_5_3_u00_r1_network.client[90] 	avg_time[90] 	0.00547870197
scalar tree_5_3_u00_r1_network.client[91] 	hdistance[91] 	3.3911096087214
scalar tree_5_3_u00_r1_network.client[91] 	downloads[91] 	11833
scalar tree_5_3_u00_r1_network.client[91] 	avg_time[91] 	0.00552691332
scalar tree_5_3_u00_r1_network.client[92] 	hdistance[92] 	3.3585757271815
scalar tree_5_3_u00_r1_network.client[92] 	downloads[92] 	11964
scalar tree_5_3_u00_r1_network.client[92] 	avg_time[92] 	0.0054706561
scalar tree_5_3_u00_r1_network.client[93] 	hdistance[93] 	3.3383271980139
scalar tree_5_3_u00_r1_network.client[93] 	downloads[93] 	11681
scalar tree_5_3_u00_r1_network.client[93] 	avg_time[93] 	0.005429326773
scalar tree_5_3_u00_r1_network.client[94] 	hdistance[94] 	3.3159798149706
scalar tree_5_3_u00_r1_network.client[94] 	downloads[94] 	11890
scalar tree_5_3_u00_r1_network.client[94] 	avg_time[94] 	0.005395025385
scalar tree_5_3_u00_r1_network.client[95] 	hdistance[95] 	3.3283193277311
scalar tree_5_3_u00_r1_network.client[95] 	downloads[95] 	11900
scalar tree_5_3_u00_r1_network.client[95] 	avg_time[95] 	0.005414095235
scalar tree_5_3_u00_r1_network.client[96] 	hdistance[96] 	3.3279888176287
scalar tree_5_3_u00_r1_network.client[96] 	downloads[96] 	12162
scalar tree_5_3_u00_r1_network.client[96] 	avg_time[96] 	0.005407331294
scalar tree_5_3_u00_r1_network.client[97] 	hdistance[97] 	3.359195164362
scalar tree_5_3_u00_r1_network.client[97] 	downloads[97] 	12077
scalar tree_5_3_u00_r1_network.client[97] 	avg_time[97] 	0.005467248772
scalar tree_5_3_u00_r1_network.client[98] 	hdistance[98] 	3.3921406753075
scalar tree_5_3_u00_r1_network.client[98] 	downloads[98] 	12113
scalar tree_5_3_u00_r1_network.client[98] 	avg_time[98] 	0.005521339938
scalar tree_5_3_u00_r1_network.client[99] 	hdistance[99] 	3.3669831750791
scalar tree_5_3_u00_r1_network.client[99] 	downloads[99] 	12006
scalar tree_5_3_u00_r1_network.client[99] 	avg_time[99] 	0.005481089748
scalar tree_5_3_u00_r1_network.client[100] 	hdistance[100] 	3.3312266112266
scalar tree_5_3_u00_r1_network.client[100] 	downloads[100] 	12025
scalar tree_5_3_u00_r1_network.client[100] 	avg_time[100] 	0.005421701768
scalar tree_5_3_u00_r1_network.client[101] 	hdistance[101] 	3.3851747789439
scalar tree_5_3_u00_r1_network.client[101] 	downloads[101] 	12101
scalar tree_5_3_u00_r1_network.client[101] 	avg_time[101] 	0.005511938136
scalar tree_5_3_u00_r1_network.client[102] 	hdistance[102] 	3.3180838720371
scalar tree_5_3_u00_r1_network.client[102] 	downloads[102] 	12066
scalar tree_5_3_u00_r1_network.client[102] 	avg_time[102] 	0.005394659693
scalar tree_5_3_u00_r1_network.client[103] 	hdistance[103] 	3.3328113409709
scalar tree_5_3_u00_r1_network.client[103] 	downloads[103] 	12133
scalar tree_5_3_u00_r1_network.client[103] 	avg_time[103] 	0.005417140387
scalar tree_5_3_u00_r1_network.client[104] 	hdistance[104] 	3.3842397152554
scalar tree_5_3_u00_r1_network.client[104] 	downloads[104] 	12081
scalar tree_5_3_u00_r1_network.client[104] 	avg_time[104] 	0.005506163697
scalar tree_5_3_u00_r1_network.client[105] 	hdistance[105] 	3.3280497925311
scalar tree_5_3_u00_r1_network.client[105] 	downloads[105] 	12050
scalar tree_5_3_u00_r1_network.client[105] 	avg_time[105] 	0.0054121461
scalar tree_5_3_u00_r1_network.client[106] 	hdistance[106] 	3.3280273356113
scalar tree_5_3_u00_r1_network.client[106] 	downloads[106] 	11999
scalar tree_5_3_u00_r1_network.client[106] 	avg_time[106] 	0.005424949099
scalar tree_5_3_u00_r1_network.client[107] 	hdistance[107] 	3.3532573289902
scalar tree_5_3_u00_r1_network.client[107] 	downloads[107] 	12280
scalar tree_5_3_u00_r1_network.client[107] 	avg_time[107] 	0.00545230188
scalar tree_5_3_u00_r1_network.client[108] 	hdistance[108] 	3.3516824704204
scalar tree_5_3_u00_r1_network.client[108] 	downloads[108] 	11917
scalar tree_5_3_u00_r1_network.client[108] 	avg_time[108] 	0.005452375951
scalar tree_5_3_u00_r1_network.client[109] 	hdistance[109] 	3.3649932157395
scalar tree_5_3_u00_r1_network.client[109] 	downloads[109] 	11792
scalar tree_5_3_u00_r1_network.client[109] 	avg_time[109] 	0.005475233503
scalar tree_5_3_u00_r1_network.client[110] 	hdistance[110] 	3.3387435875873
scalar tree_5_3_u00_r1_network.client[110] 	downloads[110] 	11891
scalar tree_5_3_u00_r1_network.client[110] 	avg_time[110] 	0.005432509008
scalar tree_5_3_u00_r1_network.client[111] 	hdistance[111] 	3.3404750041521
scalar tree_5_3_u00_r1_network.client[111] 	downloads[111] 	12042
scalar tree_5_3_u00_r1_network.client[111] 	avg_time[111] 	0.00543298154
scalar tree_5_3_u00_r1_network.client[112] 	hdistance[112] 	3.350642886769
scalar tree_5_3_u00_r1_network.client[112] 	downloads[112] 	12055
scalar tree_5_3_u00_r1_network.client[112] 	avg_time[112] 	0.00544537236
scalar tree_5_3_u00_r1_network.client[113] 	hdistance[113] 	3.382806573957
scalar tree_5_3_u00_r1_network.client[113] 	downloads[113] 	11865
scalar tree_5_3_u00_r1_network.client[113] 	avg_time[113] 	0.005500848091
scalar tree_5_3_u00_r1_network.client[114] 	hdistance[114] 	3.3762934297973
scalar tree_5_3_u00_r1_network.client[114] 	downloads[114] 	11887
scalar tree_5_3_u00_r1_network.client[114] 	avg_time[114] 	0.005493224918
scalar tree_5_3_u00_r1_network.client[115] 	hdistance[115] 	3.3306893449996
scalar tree_5_3_u00_r1_network.client[115] 	downloads[115] 	12229
scalar tree_5_3_u00_r1_network.client[115] 	avg_time[115] 	0.005423020683
scalar tree_5_3_u00_r1_network.client[116] 	hdistance[116] 	3.3474370766787
scalar tree_5_3_u00_r1_network.client[116] 	downloads[116] 	11959
scalar tree_5_3_u00_r1_network.client[116] 	avg_time[116] 	0.005436663289
scalar tree_5_3_u00_r1_network.client[117] 	hdistance[117] 	3.3327470686767
scalar tree_5_3_u00_r1_network.client[117] 	downloads[117] 	11940
scalar tree_5_3_u00_r1_network.client[117] 	avg_time[117] 	0.005417082422
scalar tree_5_3_u00_r1_network.client[118] 	hdistance[118] 	3.3783623249894
scalar tree_5_3_u00_r1_network.client[118] 	downloads[118] 	11785
scalar tree_5_3_u00_r1_network.client[118] 	avg_time[118] 	0.005499337477
scalar tree_5_3_u00_r1_network.client[119] 	hdistance[119] 	3.3625687156422
scalar tree_5_3_u00_r1_network.client[119] 	downloads[119] 	12006
scalar tree_5_3_u00_r1_network.client[119] 	avg_time[119] 	0.005477091786
scalar tree_5_3_u00_r1_network.client[120] 	hdistance[120] 	3.332047303531
scalar tree_5_3_u00_r1_network.client[120] 	downloads[120] 	11923
scalar tree_5_3_u00_r1_network.client[120] 	avg_time[120] 	0.005422961022
