version 2
run General-82-20160819-12:02:10-2054
attr a 0.9
attr cd lcd
attr configname General
attr cr lru
attr datetime 20160819-12:02:10
attr experiment General
attr fsize 1
attr inifile hw5115/scenario_A/NRR-LCD.ini
attr iterationvars "$name=tree_4_3, $un=04, $rep=3, $cd=lcd, $cr=lru, $fsize=1, $a=0.9, $sl=nrr, $ttl=1000, $variance=0.05"
attr iterationvars2 "$name=tree_4_3, $un=04, $rep=3, $cd=lcd, $cr=lru, $fsize=1, $a=0.9, $sl=nrr, $ttl=1000, $variance=0.05, $repetition=0"
attr measurement "$name=tree_4_3, $un=04, $rep=3, $cd=lcd, $cr=lru, $fsize=1, $a=0.9, $sl=nrr, $ttl=1000, $variance=0.05"
attr name tree_4_3
attr network networks.${name}_u${un}_r${rep}_network
attr processid 2054
attr rep 3
attr repetition 0
attr replication #0
attr resultdir results
attr runnumber 82
attr seedset 3
attr sl nrr
attr ttl 1000
attr un 04
attr variance 0.05

scalar . 	a 	0.9
scalar . 	fsize 	1
scalar . 	rep 	3
scalar . 	ttl 	1000
scalar . 	un 	04
scalar . 	variance 	0.05
scalar tree_4_3_u04_r3_network.content_distribution 	repo-0 	0
scalar tree_4_3_u04_r3_network.content_distribution 	client-0 	13
scalar tree_4_3_u04_r3_network.content_distribution 	client-1 	14
scalar tree_4_3_u04_r3_network.content_distribution 	client-2 	15
scalar tree_4_3_u04_r3_network.content_distribution 	client-3 	16
scalar tree_4_3_u04_r3_network.content_distribution 	client-4 	17
scalar tree_4_3_u04_r3_network.content_distribution 	client-5 	18
scalar tree_4_3_u04_r3_network.content_distribution 	client-6 	19
scalar tree_4_3_u04_r3_network.content_distribution 	client-7 	20
scalar tree_4_3_u04_r3_network.content_distribution 	client-8 	21
scalar tree_4_3_u04_r3_network.content_distribution 	client-9 	22
scalar tree_4_3_u04_r3_network.content_distribution 	client-10 	23
scalar tree_4_3_u04_r3_network.content_distribution 	client-11 	24
scalar tree_4_3_u04_r3_network.content_distribution 	client-12 	25
scalar tree_4_3_u04_r3_network.content_distribution 	client-13 	26
scalar tree_4_3_u04_r3_network.content_distribution 	client-14 	27
scalar tree_4_3_u04_r3_network.content_distribution 	client-15 	28
scalar tree_4_3_u04_r3_network.content_distribution 	client-16 	29
scalar tree_4_3_u04_r3_network.content_distribution 	client-17 	30
scalar tree_4_3_u04_r3_network.content_distribution 	client-18 	31
scalar tree_4_3_u04_r3_network.content_distribution 	client-19 	32
scalar tree_4_3_u04_r3_network.content_distribution 	client-20 	33
scalar tree_4_3_u04_r3_network.content_distribution 	client-21 	34
scalar tree_4_3_u04_r3_network.content_distribution 	client-22 	35
scalar tree_4_3_u04_r3_network.content_distribution 	client-23 	36
scalar tree_4_3_u04_r3_network.content_distribution 	client-24 	37
scalar tree_4_3_u04_r3_network.content_distribution 	client-25 	38
scalar tree_4_3_u04_r3_network.content_distribution 	client-26 	39
scalar tree_4_3_u04_r3_network.content_distribution 	repo-0_card 	100000
scalar tree_4_3_u04_r3_network.content_distribution 	repo-0_price 	0
scalar tree_4_3_u04_r3_network.statistics 	stabilization_time 	792.8
scalar tree_4_3_u04_r3_network.statistics 	p_hit 	0.21536343233338
scalar tree_4_3_u04_r3_network.statistics 	interests 	24913.95
scalar tree_4_3_u04_r3_network.statistics 	data 	16826.35
scalar tree_4_3_u04_r3_network.statistics 	hdistance 	2.7020125716442
scalar tree_4_3_u04_r3_network.statistics 	avg_time 	0.004160970166
scalar tree_4_3_u04_r3_network.statistics 	downloads 	323506
scalar tree_4_3_u04_r3_network.statistics 	total_cost 	0
scalar tree_4_3_u04_r3_network.statistics 	total_replicas 	100000
scalar tree_4_3_u04_r3_network.statistics 	inner_hit 	0.37849684395344
scalar tree_4_3_u04_r3_network.node[0].core_layer 	interests[0] 	202393
scalar tree_4_3_u04_r3_network.node[0].core_layer 	repo_load[0] 	201060
scalar tree_4_3_u04_r3_network.node[0].core_layer 	data[0] 	0
scalar tree_4_3_u04_r3_network.node[0].core_layer 	repo_int[0] 	201060
scalar tree_4_3_u04_r3_network.node[0].content_store 	p_hit[0] 	0.0065861961629108
scalar tree_4_3_u04_r3_network.node[0].content_store 	hits[0] 	1333
scalar tree_4_3_u04_r3_network.node[0].content_store 	misses[0] 	201060
scalar tree_4_3_u04_r3_network.node[0].content_store 	decision_yes[0] 	201060
scalar tree_4_3_u04_r3_network.node[0].content_store 	decision_no[0] 	0
scalar tree_4_3_u04_r3_network.node[0].content_store 	decision_ratio[0] 	1
scalar tree_4_3_u04_r3_network.node[1].core_layer 	interests[1] 	108329
scalar tree_4_3_u04_r3_network.node[1].core_layer 	data[1] 	106183
scalar tree_4_3_u04_r3_network.node[1].content_store 	p_hit[1] 	0.019791560893205
scalar tree_4_3_u04_r3_network.node[1].content_store 	hits[1] 	2144
scalar tree_4_3_u04_r3_network.node[1].content_store 	misses[1] 	106185
scalar tree_4_3_u04_r3_network.node[1].content_store 	decision_yes[1] 	2163
scalar tree_4_3_u04_r3_network.node[1].content_store 	decision_no[1] 	104019
scalar tree_4_3_u04_r3_network.node[1].content_store 	decision_ratio[1] 	0.020370684296773
scalar tree_4_3_u04_r3_network.node[2].core_layer 	interests[2] 	72862
scalar tree_4_3_u04_r3_network.node[2].core_layer 	data[2] 	70631
scalar tree_4_3_u04_r3_network.node[2].content_store 	p_hit[2] 	0.030605802750405
scalar tree_4_3_u04_r3_network.node[2].content_store 	hits[2] 	2230
scalar tree_4_3_u04_r3_network.node[2].content_store 	misses[2] 	70632
scalar tree_4_3_u04_r3_network.node[2].content_store 	decision_yes[2] 	2449
scalar tree_4_3_u04_r3_network.node[2].content_store 	decision_no[2] 	68182
scalar tree_4_3_u04_r3_network.node[2].content_store 	decision_ratio[2] 	0.034673160510258
scalar tree_4_3_u04_r3_network.node[3].core_layer 	interests[3] 	34648
scalar tree_4_3_u04_r3_network.node[3].core_layer 	data[3] 	32439
scalar tree_4_3_u04_r3_network.node[3].content_store 	p_hit[3] 	0.063755483722004
scalar tree_4_3_u04_r3_network.node[3].content_store 	hits[3] 	2209
scalar tree_4_3_u04_r3_network.node[3].content_store 	misses[3] 	32439
scalar tree_4_3_u04_r3_network.node[3].content_store 	decision_yes[3] 	1927
scalar tree_4_3_u04_r3_network.node[3].content_store 	decision_no[3] 	30512
scalar tree_4_3_u04_r3_network.node[3].content_store 	decision_ratio[3] 	0.059403804063011
scalar tree_4_3_u04_r3_network.node[4].core_layer 	interests[4] 	42462
scalar tree_4_3_u04_r3_network.node[4].core_layer 	data[4] 	40307
scalar tree_4_3_u04_r3_network.node[4].content_store 	p_hit[4] 	0.050727709481419
scalar tree_4_3_u04_r3_network.node[4].content_store 	hits[4] 	2154
scalar tree_4_3_u04_r3_network.node[4].content_store 	misses[4] 	40308
scalar tree_4_3_u04_r3_network.node[4].content_store 	decision_yes[4] 	2356
scalar tree_4_3_u04_r3_network.node[4].content_store 	decision_no[4] 	37951
scalar tree_4_3_u04_r3_network.node[4].content_store 	decision_ratio[4] 	0.058451385615402
scalar tree_4_3_u04_r3_network.node[5].core_layer 	interests[5] 	19862
scalar tree_4_3_u04_r3_network.node[5].core_layer 	data[5] 	17320
scalar tree_4_3_u04_r3_network.node[5].content_store 	p_hit[5] 	0.12798308327459
scalar tree_4_3_u04_r3_network.node[5].content_store 	hits[5] 	2542
scalar tree_4_3_u04_r3_network.node[5].content_store 	misses[5] 	17320
scalar tree_4_3_u04_r3_network.node[5].content_store 	decision_yes[5] 	1948
scalar tree_4_3_u04_r3_network.node[5].content_store 	decision_no[5] 	15372
scalar tree_4_3_u04_r3_network.node[5].content_store 	decision_ratio[5] 	0.11247113163972
scalar tree_4_3_u04_r3_network.node[6].core_layer 	interests[6] 	18818
scalar tree_4_3_u04_r3_network.node[6].core_layer 	data[6] 	17160
scalar tree_4_3_u04_r3_network.node[6].content_store 	p_hit[6] 	0.088107131469869
scalar tree_4_3_u04_r3_network.node[6].content_store 	hits[6] 	1658
scalar tree_4_3_u04_r3_network.node[6].content_store 	misses[6] 	17160
scalar tree_4_3_u04_r3_network.node[6].content_store 	decision_yes[6] 	1449
scalar tree_4_3_u04_r3_network.node[6].content_store 	decision_no[6] 	15711
scalar tree_4_3_u04_r3_network.node[6].content_store 	decision_ratio[6] 	0.084440559440559
scalar tree_4_3_u04_r3_network.node[7].core_layer 	interests[7] 	26786
scalar tree_4_3_u04_r3_network.node[7].core_layer 	data[7] 	25300
scalar tree_4_3_u04_r3_network.node[7].content_store 	p_hit[7] 	0.055476741581423
scalar tree_4_3_u04_r3_network.node[7].content_store 	hits[7] 	1486
scalar tree_4_3_u04_r3_network.node[7].content_store 	misses[7] 	25300
scalar tree_4_3_u04_r3_network.node[7].content_store 	decision_yes[7] 	1418
scalar tree_4_3_u04_r3_network.node[7].content_store 	decision_no[7] 	23882
scalar tree_4_3_u04_r3_network.node[7].content_store 	decision_ratio[7] 	0.05604743083004
scalar tree_4_3_u04_r3_network.node[8].core_layer 	interests[8] 	26372
scalar tree_4_3_u04_r3_network.node[8].core_layer 	data[8] 	24865
scalar tree_4_3_u04_r3_network.node[8].content_store 	p_hit[8] 	0.057143940543
scalar tree_4_3_u04_r3_network.node[8].content_store 	hits[8] 	1507
scalar tree_4_3_u04_r3_network.node[8].content_store 	misses[8] 	24865
scalar tree_4_3_u04_r3_network.node[8].content_store 	decision_yes[8] 	1147
scalar tree_4_3_u04_r3_network.node[8].content_store 	decision_no[8] 	23718
scalar tree_4_3_u04_r3_network.node[8].content_store 	decision_ratio[8] 	0.046129097124472
scalar tree_4_3_u04_r3_network.node[9].core_layer 	interests[9] 	28639
scalar tree_4_3_u04_r3_network.node[9].core_layer 	data[9] 	25881
scalar tree_4_3_u04_r3_network.node[9].content_store 	p_hit[9] 	0.096267327769824
scalar tree_4_3_u04_r3_network.node[9].content_store 	hits[9] 	2757
scalar tree_4_3_u04_r3_network.node[9].content_store 	misses[9] 	25882
scalar tree_4_3_u04_r3_network.node[9].content_store 	decision_yes[9] 	2747
scalar tree_4_3_u04_r3_network.node[9].content_store 	decision_no[9] 	23134
scalar tree_4_3_u04_r3_network.node[9].content_store 	decision_ratio[9] 	0.1061396391175
scalar tree_4_3_u04_r3_network.node[10].core_layer 	interests[10] 	44989
scalar tree_4_3_u04_r3_network.node[10].core_layer 	data[10] 	41822
scalar tree_4_3_u04_r3_network.node[10].content_store 	p_hit[10] 	0.070394985440886
scalar tree_4_3_u04_r3_network.node[10].content_store 	hits[10] 	3167
scalar tree_4_3_u04_r3_network.node[10].content_store 	misses[10] 	41822
scalar tree_4_3_u04_r3_network.node[10].content_store 	decision_yes[10] 	3898
scalar tree_4_3_u04_r3_network.node[10].content_store 	decision_no[10] 	37923
scalar tree_4_3_u04_r3_network.node[10].content_store 	decision_ratio[10] 	0.093206762152985
scalar tree_4_3_u04_r3_network.node[11].core_layer 	interests[11] 	18313
scalar tree_4_3_u04_r3_network.node[11].core_layer 	data[11] 	16862
scalar tree_4_3_u04_r3_network.node[11].content_store 	p_hit[11] 	0.079233331513133
scalar tree_4_3_u04_r3_network.node[11].content_store 	hits[11] 	1451
scalar tree_4_3_u04_r3_network.node[11].content_store 	misses[11] 	16862
scalar tree_4_3_u04_r3_network.node[11].content_store 	decision_yes[11] 	1018
scalar tree_4_3_u04_r3_network.node[11].content_store 	decision_no[11] 	15844
scalar tree_4_3_u04_r3_network.node[11].content_store 	decision_ratio[11] 	0.060372435061084
scalar tree_4_3_u04_r3_network.node[12].core_layer 	interests[12] 	18150
scalar tree_4_3_u04_r3_network.node[12].core_layer 	data[12] 	16752
scalar tree_4_3_u04_r3_network.node[12].content_store 	p_hit[12] 	0.07702479338843
scalar tree_4_3_u04_r3_network.node[12].content_store 	hits[12] 	1398
scalar tree_4_3_u04_r3_network.node[12].content_store 	misses[12] 	16752
scalar tree_4_3_u04_r3_network.node[12].content_store 	decision_yes[12] 	1030
scalar tree_4_3_u04_r3_network.node[12].content_store 	decision_no[12] 	15722
scalar tree_4_3_u04_r3_network.node[12].content_store 	decision_ratio[12] 	0.061485195797517
scalar tree_4_3_u04_r3_network.node[13].core_layer 	interests[13] 	12187
scalar tree_4_3_u04_r3_network.node[13].core_layer 	data[13] 	8647
scalar tree_4_3_u04_r3_network.node[13].content_store 	p_hit[13] 	0.29047345532124
scalar tree_4_3_u04_r3_network.node[13].content_store 	hits[13] 	3540
scalar tree_4_3_u04_r3_network.node[13].content_store 	misses[13] 	8647
scalar tree_4_3_u04_r3_network.node[13].content_store 	decision_yes[13] 	384
scalar tree_4_3_u04_r3_network.node[13].content_store 	decision_no[13] 	8263
scalar tree_4_3_u04_r3_network.node[13].content_store 	decision_ratio[13] 	0.04440846536371
scalar tree_4_3_u04_r3_network.node[14].core_layer 	interests[14] 	12670
scalar tree_4_3_u04_r3_network.node[14].core_layer 	data[14] 	8971
scalar tree_4_3_u04_r3_network.node[14].content_store 	p_hit[14] 	0.29194948697711
scalar tree_4_3_u04_r3_network.node[14].content_store 	hits[14] 	3699
scalar tree_4_3_u04_r3_network.node[14].content_store 	misses[14] 	8971
scalar tree_4_3_u04_r3_network.node[14].content_store 	decision_yes[14] 	751
scalar tree_4_3_u04_r3_network.node[14].content_store 	decision_no[14] 	8220
scalar tree_4_3_u04_r3_network.node[14].content_store 	decision_ratio[14] 	0.08371419016832
scalar tree_4_3_u04_r3_network.node[15].core_layer 	interests[15] 	12289
scalar tree_4_3_u04_r3_network.node[15].core_layer 	data[15] 	8794
scalar tree_4_3_u04_r3_network.node[15].content_store 	p_hit[15] 	0.28440068353812
scalar tree_4_3_u04_r3_network.node[15].content_store 	hits[15] 	3495
scalar tree_4_3_u04_r3_network.node[15].content_store 	misses[15] 	8794
scalar tree_4_3_u04_r3_network.node[15].content_store 	decision_yes[15] 	408
scalar tree_4_3_u04_r3_network.node[15].content_store 	decision_no[15] 	8386
scalar tree_4_3_u04_r3_network.node[15].content_store 	decision_ratio[15] 	0.046395269501933
scalar tree_4_3_u04_r3_network.node[16].core_layer 	interests[16] 	12592
scalar tree_4_3_u04_r3_network.node[16].core_layer 	data[16] 	8831
scalar tree_4_3_u04_r3_network.node[16].content_store 	p_hit[16] 	0.29860228716645
scalar tree_4_3_u04_r3_network.node[16].content_store 	hits[16] 	3760
scalar tree_4_3_u04_r3_network.node[16].content_store 	misses[16] 	8832
scalar tree_4_3_u04_r3_network.node[16].content_store 	decision_yes[16] 	713
scalar tree_4_3_u04_r3_network.node[16].content_store 	decision_no[16] 	8118
scalar tree_4_3_u04_r3_network.node[16].content_store 	decision_ratio[16] 	0.080738308232363
scalar tree_4_3_u04_r3_network.node[17].core_layer 	interests[17] 	12190
scalar tree_4_3_u04_r3_network.node[17].core_layer 	data[17] 	8775
scalar tree_4_3_u04_r3_network.node[17].content_store 	p_hit[17] 	0.28014766201805
scalar tree_4_3_u04_r3_network.node[17].content_store 	hits[17] 	3415
scalar tree_4_3_u04_r3_network.node[17].content_store 	misses[17] 	8775
scalar tree_4_3_u04_r3_network.node[17].content_store 	decision_yes[17] 	383
scalar tree_4_3_u04_r3_network.node[17].content_store 	decision_no[17] 	8392
scalar tree_4_3_u04_r3_network.node[17].content_store 	decision_ratio[17] 	0.043646723646724
scalar tree_4_3_u04_r3_network.node[18].core_layer 	interests[18] 	12631
scalar tree_4_3_u04_r3_network.node[18].core_layer 	data[18] 	8825
scalar tree_4_3_u04_r3_network.node[18].content_store 	p_hit[18] 	0.3013221439316
scalar tree_4_3_u04_r3_network.node[18].content_store 	hits[18] 	3806
scalar tree_4_3_u04_r3_network.node[18].content_store 	misses[18] 	8825
scalar tree_4_3_u04_r3_network.node[18].content_store 	decision_yes[18] 	716
scalar tree_4_3_u04_r3_network.node[18].content_store 	decision_no[18] 	8109
scalar tree_4_3_u04_r3_network.node[18].content_store 	decision_ratio[18] 	0.081133144475921
scalar tree_4_3_u04_r3_network.node[19].core_layer 	interests[19] 	12492
scalar tree_4_3_u04_r3_network.node[19].core_layer 	data[19] 	8669
scalar tree_4_3_u04_r3_network.node[19].content_store 	p_hit[19] 	0.30603586295229
scalar tree_4_3_u04_r3_network.node[19].content_store 	hits[19] 	3823
scalar tree_4_3_u04_r3_network.node[19].content_store 	misses[19] 	8669
scalar tree_4_3_u04_r3_network.node[19].content_store 	decision_yes[19] 	670
scalar tree_4_3_u04_r3_network.node[19].content_store 	decision_no[19] 	7999
scalar tree_4_3_u04_r3_network.node[19].content_store 	decision_ratio[19] 	0.077286884300381
scalar tree_4_3_u04_r3_network.node[20].core_layer 	interests[20] 	12161
scalar tree_4_3_u04_r3_network.node[20].core_layer 	data[20] 	8649
scalar tree_4_3_u04_r3_network.node[20].content_store 	p_hit[20] 	0.28895650028781
scalar tree_4_3_u04_r3_network.node[20].content_store 	hits[20] 	3514
scalar tree_4_3_u04_r3_network.node[20].content_store 	misses[20] 	8647
scalar tree_4_3_u04_r3_network.node[20].content_store 	decision_yes[20] 	320
scalar tree_4_3_u04_r3_network.node[20].content_store 	decision_no[20] 	8329
scalar tree_4_3_u04_r3_network.node[20].content_store 	decision_ratio[20] 	0.036998496936062
scalar tree_4_3_u04_r3_network.node[21].core_layer 	interests[21] 	12309
scalar tree_4_3_u04_r3_network.node[21].core_layer 	data[21] 	8882
scalar tree_4_3_u04_r3_network.node[21].content_store 	p_hit[21] 	0.2784141684946
scalar tree_4_3_u04_r3_network.node[21].content_store 	hits[21] 	3427
scalar tree_4_3_u04_r3_network.node[21].content_store 	misses[21] 	8882
scalar tree_4_3_u04_r3_network.node[21].content_store 	decision_yes[21] 	401
scalar tree_4_3_u04_r3_network.node[21].content_store 	decision_no[21] 	8481
scalar tree_4_3_u04_r3_network.node[21].content_store 	decision_ratio[21] 	0.045147489304211
scalar tree_4_3_u04_r3_network.node[22].core_layer 	interests[22] 	12391
scalar tree_4_3_u04_r3_network.node[22].core_layer 	data[22] 	8819
scalar tree_4_3_u04_r3_network.node[22].content_store 	p_hit[22] 	0.28827374707449
scalar tree_4_3_u04_r3_network.node[22].content_store 	hits[22] 	3572
scalar tree_4_3_u04_r3_network.node[22].content_store 	misses[22] 	8819
scalar tree_4_3_u04_r3_network.node[22].content_store 	decision_yes[22] 	351
scalar tree_4_3_u04_r3_network.node[22].content_store 	decision_no[22] 	8468
scalar tree_4_3_u04_r3_network.node[22].content_store 	decision_ratio[22] 	0.039800430887856
scalar tree_4_3_u04_r3_network.node[23].core_layer 	interests[23] 	12421
scalar tree_4_3_u04_r3_network.node[23].core_layer 	data[23] 	8930
scalar tree_4_3_u04_r3_network.node[23].content_store 	p_hit[23] 	0.28105627566218
scalar tree_4_3_u04_r3_network.node[23].content_store 	hits[23] 	3491
scalar tree_4_3_u04_r3_network.node[23].content_store 	misses[23] 	8930
scalar tree_4_3_u04_r3_network.node[23].content_store 	decision_yes[23] 	415
scalar tree_4_3_u04_r3_network.node[23].content_store 	decision_no[23] 	8515
scalar tree_4_3_u04_r3_network.node[23].content_store 	decision_ratio[23] 	0.046472564389698
scalar tree_4_3_u04_r3_network.node[24].core_layer 	interests[24] 	12017
scalar tree_4_3_u04_r3_network.node[24].core_layer 	data[24] 	8631
scalar tree_4_3_u04_r3_network.node[24].content_store 	p_hit[24] 	0.28176749604727
scalar tree_4_3_u04_r3_network.node[24].content_store 	hits[24] 	3386
scalar tree_4_3_u04_r3_network.node[24].content_store 	misses[24] 	8631
scalar tree_4_3_u04_r3_network.node[24].content_store 	decision_yes[24] 	371
scalar tree_4_3_u04_r3_network.node[24].content_store 	decision_no[24] 	8260
scalar tree_4_3_u04_r3_network.node[24].content_store 	decision_ratio[24] 	0.042984590429846
scalar tree_4_3_u04_r3_network.node[25].core_layer 	interests[25] 	12291
scalar tree_4_3_u04_r3_network.node[25].core_layer 	data[25] 	8908
scalar tree_4_3_u04_r3_network.node[25].content_store 	p_hit[25] 	0.27524204702628
scalar tree_4_3_u04_r3_network.node[25].content_store 	hits[25] 	3383
scalar tree_4_3_u04_r3_network.node[25].content_store 	misses[25] 	8908
scalar tree_4_3_u04_r3_network.node[25].content_store 	decision_yes[25] 	385
scalar tree_4_3_u04_r3_network.node[25].content_store 	decision_no[25] 	8523
scalar tree_4_3_u04_r3_network.node[25].content_store 	decision_ratio[25] 	0.043219577907499
scalar tree_4_3_u04_r3_network.node[26].core_layer 	interests[26] 	12235
scalar tree_4_3_u04_r3_network.node[26].core_layer 	data[26] 	8902
scalar tree_4_3_u04_r3_network.node[26].content_store 	p_hit[26] 	0.27241520228852
scalar tree_4_3_u04_r3_network.node[26].content_store 	hits[26] 	3333
scalar tree_4_3_u04_r3_network.node[26].content_store 	misses[26] 	8902
scalar tree_4_3_u04_r3_network.node[26].content_store 	decision_yes[26] 	382
scalar tree_4_3_u04_r3_network.node[26].content_store 	decision_no[26] 	8520
scalar tree_4_3_u04_r3_network.node[26].content_store 	decision_ratio[26] 	0.042911705234779
scalar tree_4_3_u04_r3_network.node[27].core_layer 	interests[27] 	12660
scalar tree_4_3_u04_r3_network.node[27].core_layer 	data[27] 	8894
scalar tree_4_3_u04_r3_network.node[27].content_store 	p_hit[27] 	0.29747235387046
scalar tree_4_3_u04_r3_network.node[27].content_store 	hits[27] 	3766
scalar tree_4_3_u04_r3_network.node[27].content_store 	misses[27] 	8894
scalar tree_4_3_u04_r3_network.node[27].content_store 	decision_yes[27] 	720
scalar tree_4_3_u04_r3_network.node[27].content_store 	decision_no[27] 	8174
scalar tree_4_3_u04_r3_network.node[27].content_store 	decision_ratio[27] 	0.080953451765235
scalar tree_4_3_u04_r3_network.node[28].core_layer 	interests[28] 	12173
scalar tree_4_3_u04_r3_network.node[28].core_layer 	data[28] 	8658
scalar tree_4_3_u04_r3_network.node[28].content_store 	p_hit[28] 	0.28867165037378
scalar tree_4_3_u04_r3_network.node[28].content_store 	hits[28] 	3514
scalar tree_4_3_u04_r3_network.node[28].content_store 	misses[28] 	8659
scalar tree_4_3_u04_r3_network.node[28].content_store 	decision_yes[28] 	402
scalar tree_4_3_u04_r3_network.node[28].content_store 	decision_no[28] 	8256
scalar tree_4_3_u04_r3_network.node[28].content_store 	decision_ratio[28] 	0.046431046431046
scalar tree_4_3_u04_r3_network.node[29].core_layer 	interests[29] 	12369
scalar tree_4_3_u04_r3_network.node[29].core_layer 	data[29] 	8849
scalar tree_4_3_u04_r3_network.node[29].content_store 	p_hit[29] 	0.28458242380144
scalar tree_4_3_u04_r3_network.node[29].content_store 	hits[29] 	3520
scalar tree_4_3_u04_r3_network.node[29].content_store 	misses[29] 	8849
scalar tree_4_3_u04_r3_network.node[29].content_store 	decision_yes[29] 	440
scalar tree_4_3_u04_r3_network.node[29].content_store 	decision_no[29] 	8409
scalar tree_4_3_u04_r3_network.node[29].content_store 	decision_ratio[29] 	0.049723132557351
scalar tree_4_3_u04_r3_network.node[30].core_layer 	interests[30] 	12467
scalar tree_4_3_u04_r3_network.node[30].core_layer 	data[30] 	8857
scalar tree_4_3_u04_r3_network.node[30].content_store 	p_hit[30] 	0.28956445014839
scalar tree_4_3_u04_r3_network.node[30].content_store 	hits[30] 	3610
scalar tree_4_3_u04_r3_network.node[30].content_store 	misses[30] 	8857
scalar tree_4_3_u04_r3_network.node[30].content_store 	decision_yes[30] 	440
scalar tree_4_3_u04_r3_network.node[30].content_store 	decision_no[30] 	8417
scalar tree_4_3_u04_r3_network.node[30].content_store 	decision_ratio[30] 	0.049678220616462
scalar tree_4_3_u04_r3_network.node[31].core_layer 	interests[31] 	12442
scalar tree_4_3_u04_r3_network.node[31].core_layer 	data[31] 	8841
scalar tree_4_3_u04_r3_network.node[31].content_store 	p_hit[31] 	0.28950329529015
scalar tree_4_3_u04_r3_network.node[31].content_store 	hits[31] 	3602
scalar tree_4_3_u04_r3_network.node[31].content_store 	misses[31] 	8840
scalar tree_4_3_u04_r3_network.node[31].content_store 	decision_yes[31] 	466
scalar tree_4_3_u04_r3_network.node[31].content_store 	decision_no[31] 	8375
scalar tree_4_3_u04_r3_network.node[31].content_store 	decision_ratio[31] 	0.052708969573578
scalar tree_4_3_u04_r3_network.node[32].core_layer 	interests[32] 	12516
scalar tree_4_3_u04_r3_network.node[32].core_layer 	data[32] 	8864
scalar tree_4_3_u04_r3_network.node[32].content_store 	p_hit[32] 	0.29178651326302
scalar tree_4_3_u04_r3_network.node[32].content_store 	hits[32] 	3652
scalar tree_4_3_u04_r3_network.node[32].content_store 	misses[32] 	8864
scalar tree_4_3_u04_r3_network.node[32].content_store 	decision_yes[32] 	426
scalar tree_4_3_u04_r3_network.node[32].content_store 	decision_no[32] 	8438
scalar tree_4_3_u04_r3_network.node[32].content_store 	decision_ratio[32] 	0.048059566787004
scalar tree_4_3_u04_r3_network.node[33].core_layer 	interests[33] 	12327
scalar tree_4_3_u04_r3_network.node[33].core_layer 	data[33] 	8789
scalar tree_4_3_u04_r3_network.node[33].content_store 	p_hit[33] 	0.28701224953354
scalar tree_4_3_u04_r3_network.node[33].content_store 	hits[33] 	3538
scalar tree_4_3_u04_r3_network.node[33].content_store 	misses[33] 	8789
scalar tree_4_3_u04_r3_network.node[33].content_store 	decision_yes[33] 	453
scalar tree_4_3_u04_r3_network.node[33].content_store 	decision_no[33] 	8336
scalar tree_4_3_u04_r3_network.node[33].content_store 	decision_ratio[33] 	0.051541699852088
scalar tree_4_3_u04_r3_network.node[34].core_layer 	interests[34] 	12873
scalar tree_4_3_u04_r3_network.node[34].core_layer 	data[34] 	8888
scalar tree_4_3_u04_r3_network.node[34].content_store 	p_hit[34] 	0.30956265050882
scalar tree_4_3_u04_r3_network.node[34].content_store 	hits[34] 	3985
scalar tree_4_3_u04_r3_network.node[34].content_store 	misses[34] 	8888
scalar tree_4_3_u04_r3_network.node[34].content_store 	decision_yes[34] 	719
scalar tree_4_3_u04_r3_network.node[34].content_store 	decision_no[34] 	8169
scalar tree_4_3_u04_r3_network.node[34].content_store 	decision_ratio[34] 	0.080895589558956
scalar tree_4_3_u04_r3_network.node[35].core_layer 	interests[35] 	12121
scalar tree_4_3_u04_r3_network.node[35].core_layer 	data[35] 	8711
scalar tree_4_3_u04_r3_network.node[35].content_store 	p_hit[35] 	0.28132992327366
scalar tree_4_3_u04_r3_network.node[35].content_store 	hits[35] 	3410
scalar tree_4_3_u04_r3_network.node[35].content_store 	misses[35] 	8711
scalar tree_4_3_u04_r3_network.node[35].content_store 	decision_yes[35] 	382
scalar tree_4_3_u04_r3_network.node[35].content_store 	decision_no[35] 	8329
scalar tree_4_3_u04_r3_network.node[35].content_store 	decision_ratio[35] 	0.043852600160716
scalar tree_4_3_u04_r3_network.node[36].core_layer 	interests[36] 	12182
scalar tree_4_3_u04_r3_network.node[36].core_layer 	data[36] 	8788
scalar tree_4_3_u04_r3_network.node[36].content_store 	p_hit[36] 	0.2786077819734
scalar tree_4_3_u04_r3_network.node[36].content_store 	hits[36] 	3394
scalar tree_4_3_u04_r3_network.node[36].content_store 	misses[36] 	8788
scalar tree_4_3_u04_r3_network.node[36].content_store 	decision_yes[36] 	385
scalar tree_4_3_u04_r3_network.node[36].content_store 	decision_no[36] 	8403
scalar tree_4_3_u04_r3_network.node[36].content_store 	decision_ratio[36] 	0.043809740555303
scalar tree_4_3_u04_r3_network.node[37].core_layer 	interests[37] 	12679
scalar tree_4_3_u04_r3_network.node[37].core_layer 	data[37] 	8851
scalar tree_4_3_u04_r3_network.node[37].content_store 	p_hit[37] 	0.30191655493335
scalar tree_4_3_u04_r3_network.node[37].content_store 	hits[37] 	3828
scalar tree_4_3_u04_r3_network.node[37].content_store 	misses[37] 	8851
scalar tree_4_3_u04_r3_network.node[37].content_store 	decision_yes[37] 	730
scalar tree_4_3_u04_r3_network.node[37].content_store 	decision_no[37] 	8121
scalar tree_4_3_u04_r3_network.node[37].content_store 	decision_ratio[37] 	0.08247655632132
scalar tree_4_3_u04_r3_network.node[38].core_layer 	interests[38] 	12115
scalar tree_4_3_u04_r3_network.node[38].core_layer 	data[38] 	8639
scalar tree_4_3_u04_r3_network.node[38].content_store 	p_hit[38] 	0.28691704498556
scalar tree_4_3_u04_r3_network.node[38].content_store 	hits[38] 	3476
scalar tree_4_3_u04_r3_network.node[38].content_store 	misses[38] 	8639
scalar tree_4_3_u04_r3_network.node[38].content_store 	decision_yes[38] 	320
scalar tree_4_3_u04_r3_network.node[38].content_store 	decision_no[38] 	8319
scalar tree_4_3_u04_r3_network.node[38].content_store 	decision_ratio[38] 	0.037041324227341
scalar tree_4_3_u04_r3_network.node[39].core_layer 	interests[39] 	12135
scalar tree_4_3_u04_r3_network.node[39].core_layer 	data[39] 	8670
scalar tree_4_3_u04_r3_network.node[39].content_store 	p_hit[39] 	0.28545529460239
scalar tree_4_3_u04_r3_network.node[39].content_store 	hits[39] 	3464
scalar tree_4_3_u04_r3_network.node[39].content_store 	misses[39] 	8671
scalar tree_4_3_u04_r3_network.node[39].content_store 	decision_yes[39] 	381
scalar tree_4_3_u04_r3_network.node[39].content_store 	decision_no[39] 	8289
scalar tree_4_3_u04_r3_network.node[39].content_store 	decision_ratio[39] 	0.043944636678201
scalar tree_4_3_u04_r3_network.client[13] 	hdistance[13] 	2.698399326032
scalar tree_4_3_u04_r3_network.client[13] 	downloads[13] 	11870
scalar tree_4_3_u04_r3_network.client[13] 	avg_time[13] 	0.004153203139
scalar tree_4_3_u04_r3_network.client[14] 	hdistance[14] 	2.6745169582884
scalar tree_4_3_u04_r3_network.client[14] 	downloads[14] 	12059
scalar tree_4_3_u04_r3_network.client[14] 	avg_time[14] 	0.004120404928
scalar tree_4_3_u04_r3_network.client[15] 	hdistance[15] 	2.7205673758865
scalar tree_4_3_u04_r3_network.client[15] 	downloads[15] 	11985
scalar tree_4_3_u04_r3_network.client[15] 	avg_time[15] 	0.004181557312
scalar tree_4_3_u04_r3_network.client[16] 	hdistance[16] 	2.6569733433609
scalar tree_4_3_u04_r3_network.client[16] 	downloads[16] 	11967
scalar tree_4_3_u04_r3_network.client[16] 	avg_time[16] 	0.004096428872
scalar tree_4_3_u04_r3_network.client[17] 	hdistance[17] 	2.6973607038123
scalar tree_4_3_u04_r3_network.client[17] 	downloads[17] 	11935
scalar tree_4_3_u04_r3_network.client[17] 	avg_time[17] 	0.004168116994
scalar tree_4_3_u04_r3_network.client[18] 	hdistance[18] 	2.6519493502166
scalar tree_4_3_u04_r3_network.client[18] 	downloads[18] 	12004
scalar tree_4_3_u04_r3_network.client[18] 	avg_time[18] 	0.00408530189
scalar tree_4_3_u04_r3_network.client[19] 	hdistance[19] 	2.6664135021097
scalar tree_4_3_u04_r3_network.client[19] 	downloads[19] 	11850
scalar tree_4_3_u04_r3_network.client[19] 	avg_time[19] 	0.00409434301
scalar tree_4_3_u04_r3_network.client[20] 	hdistance[20] 	2.7115174901435
scalar tree_4_3_u04_r3_network.client[20] 	downloads[20] 	11921
scalar tree_4_3_u04_r3_network.client[20] 	avg_time[20] 	0.00417292231
scalar tree_4_3_u04_r3_network.client[21] 	hdistance[21] 	2.7173302494631
scalar tree_4_3_u04_r3_network.client[21] 	downloads[21] 	12106
scalar tree_4_3_u04_r3_network.client[21] 	avg_time[21] 	0.004188168127
scalar tree_4_3_u04_r3_network.client[22] 	hdistance[22] 	2.7219476025704
scalar tree_4_3_u04_r3_network.client[22] 	downloads[22] 	12138
scalar tree_4_3_u04_r3_network.client[22] 	avg_time[22] 	0.004184541389
scalar tree_4_3_u04_r3_network.client[23] 	hdistance[23] 	2.7296098562628
scalar tree_4_3_u04_r3_network.client[23] 	downloads[23] 	12175
scalar tree_4_3_u04_r3_network.client[23] 	avg_time[23] 	0.004198960697
scalar tree_4_3_u04_r3_network.client[24] 	hdistance[24] 	2.7387165320867
scalar tree_4_3_u04_r3_network.client[24] 	downloads[24] 	11765
scalar tree_4_3_u04_r3_network.client[24] 	avg_time[24] 	0.004208921821
scalar tree_4_3_u04_r3_network.client[25] 	hdistance[25] 	2.7484510532838
scalar tree_4_3_u04_r3_network.client[25] 	downloads[25] 	12105
scalar tree_4_3_u04_r3_network.client[25] 	avg_time[25] 	0.004230315009
scalar tree_4_3_u04_r3_network.client[26] 	hdistance[26] 	2.7610590090464
scalar tree_4_3_u04_r3_network.client[26] 	downloads[26] 	12049
scalar tree_4_3_u04_r3_network.client[26] 	avg_time[26] 	0.004248150379
scalar tree_4_3_u04_r3_network.client[27] 	hdistance[27] 	2.6916771225428
scalar tree_4_3_u04_r3_network.client[27] 	downloads[27] 	11955
scalar tree_4_3_u04_r3_network.client[27] 	avg_time[27] 	0.004140691305
scalar tree_4_3_u04_r3_network.client[28] 	hdistance[28] 	2.6977691067945
scalar tree_4_3_u04_r3_network.client[28] 	downloads[28] 	11789
scalar tree_4_3_u04_r3_network.client[28] 	avg_time[28] 	0.004160994583
scalar tree_4_3_u04_r3_network.client[29] 	hdistance[29] 	2.7048127450163
scalar tree_4_3_u04_r3_network.client[29] 	downloads[29] 	11989
scalar tree_4_3_u04_r3_network.client[29] 	avg_time[29] 	0.004174823908
scalar tree_4_3_u04_r3_network.client[30] 	hdistance[30] 	2.6973848069739
scalar tree_4_3_u04_r3_network.client[30] 	downloads[30] 	12045
scalar tree_4_3_u04_r3_network.client[30] 	avg_time[30] 	0.004161225729
scalar tree_4_3_u04_r3_network.client[31] 	hdistance[31] 	2.6813251001335
scalar tree_4_3_u04_r3_network.client[31] 	downloads[31] 	11984
scalar tree_4_3_u04_r3_network.client[31] 	avg_time[31] 	0.004137677507
scalar tree_4_3_u04_r3_network.client[32] 	hdistance[32] 	2.690741356383
scalar tree_4_3_u04_r3_network.client[32] 	downloads[32] 	12032
scalar tree_4_3_u04_r3_network.client[32] 	avg_time[32] 	0.004151426499
scalar tree_4_3_u04_r3_network.client[33] 	hdistance[33] 	2.7010846716556
scalar tree_4_3_u04_r3_network.client[33] 	downloads[33] 	11893
scalar tree_4_3_u04_r3_network.client[33] 	avg_time[33] 	0.004167322324
scalar tree_4_3_u04_r3_network.client[34] 	hdistance[34] 	2.6476269087907
scalar tree_4_3_u04_r3_network.client[34] 	downloads[34] 	12115
scalar tree_4_3_u04_r3_network.client[34] 	avg_time[34] 	0.004074615264
scalar tree_4_3_u04_r3_network.client[35] 	hdistance[35] 	2.7225196586916
scalar tree_4_3_u04_r3_network.client[35] 	downloads[35] 	11954
scalar tree_4_3_u04_r3_network.client[35] 	avg_time[35] 	0.00418604355
scalar tree_4_3_u04_r3_network.client[36] 	hdistance[36] 	2.7256843331392
scalar tree_4_3_u04_r3_network.client[36] 	downloads[36] 	12019
scalar tree_4_3_u04_r3_network.client[36] 	avg_time[36] 	0.004197018345
scalar tree_4_3_u04_r3_network.client[37] 	hdistance[37] 	2.6802755376344
scalar tree_4_3_u04_r3_network.client[37] 	downloads[37] 	11904
scalar tree_4_3_u04_r3_network.client[37] 	avg_time[37] 	0.004125333017
scalar tree_4_3_u04_r3_network.client[38] 	hdistance[38] 	2.7165354330709
scalar tree_4_3_u04_r3_network.client[38] 	downloads[38] 	11938
scalar tree_4_3_u04_r3_network.client[38] 	avg_time[38] 	0.004175738365
scalar tree_4_3_u04_r3_network.client[39] 	hdistance[39] 	2.7020903010034
scalar tree_4_3_u04_r3_network.client[39] 	downloads[39] 	11960
scalar tree_4_3_u04_r3_network.client[39] 	avg_time[39] 	0.004161948211
