version 2
run General-99-20160819-12:20:16-2054
attr a 0.9
attr cd lcd
attr configname General
attr cr lru
attr datetime 20160819-12:20:16
attr experiment General
attr fsize 1
attr inifile hw5115/scenario_A/NRR-LCD.ini
attr iterationvars "$name=tree_4_3, $un=04, $rep=20, $cd=lcd, $cr=lru, $fsize=1, $a=0.9, $sl=nrr, $ttl=1000, $variance=0.05"
attr iterationvars2 "$name=tree_4_3, $un=04, $rep=20, $cd=lcd, $cr=lru, $fsize=1, $a=0.9, $sl=nrr, $ttl=1000, $variance=0.05, $repetition=0"
attr measurement "$name=tree_4_3, $un=04, $rep=20, $cd=lcd, $cr=lru, $fsize=1, $a=0.9, $sl=nrr, $ttl=1000, $variance=0.05"
attr name tree_4_3
attr network networks.${name}_u${un}_r${rep}_network
attr processid 2054
attr rep 20
attr repetition 0
attr replication #0
attr resultdir results
attr runnumber 99
attr seedset 20
attr sl nrr
attr ttl 1000
attr un 04
attr variance 0.05

scalar . 	a 	0.9
scalar . 	fsize 	1
scalar . 	rep 	20
scalar . 	ttl 	1000
scalar . 	un 	04
scalar . 	variance 	0.05
scalar tree_4_3_u04_r20_network.content_distribution 	repo-0 	0
scalar tree_4_3_u04_r20_network.content_distribution 	client-0 	13
scalar tree_4_3_u04_r20_network.content_distribution 	client-1 	14
scalar tree_4_3_u04_r20_network.content_distribution 	client-2 	15
scalar tree_4_3_u04_r20_network.content_distribution 	client-3 	16
scalar tree_4_3_u04_r20_network.content_distribution 	client-4 	17
scalar tree_4_3_u04_r20_network.content_distribution 	client-5 	18
scalar tree_4_3_u04_r20_network.content_distribution 	client-6 	19
scalar tree_4_3_u04_r20_network.content_distribution 	client-7 	20
scalar tree_4_3_u04_r20_network.content_distribution 	client-8 	21
scalar tree_4_3_u04_r20_network.content_distribution 	client-9 	22
scalar tree_4_3_u04_r20_network.content_distribution 	client-10 	23
scalar tree_4_3_u04_r20_network.content_distribution 	client-11 	24
scalar tree_4_3_u04_r20_network.content_distribution 	client-12 	25
scalar tree_4_3_u04_r20_network.content_distribution 	client-13 	26
scalar tree_4_3_u04_r20_network.content_distribution 	client-14 	27
scalar tree_4_3_u04_r20_network.content_distribution 	client-15 	28
scalar tree_4_3_u04_r20_network.content_distribution 	client-16 	29
scalar tree_4_3_u04_r20_network.content_distribution 	client-17 	30
scalar tree_4_3_u04_r20_network.content_distribution 	client-18 	31
scalar tree_4_3_u04_r20_network.content_distribution 	client-19 	32
scalar tree_4_3_u04_r20_network.content_distribution 	client-20 	33
scalar tree_4_3_u04_r20_network.content_distribution 	client-21 	34
scalar tree_4_3_u04_r20_network.content_distribution 	client-22 	35
scalar tree_4_3_u04_r20_network.content_distribution 	client-23 	36
scalar tree_4_3_u04_r20_network.content_distribution 	client-24 	37
scalar tree_4_3_u04_r20_network.content_distribution 	client-25 	38
scalar tree_4_3_u04_r20_network.content_distribution 	client-26 	39
scalar tree_4_3_u04_r20_network.content_distribution 	repo-0_card 	100000
scalar tree_4_3_u04_r20_network.content_distribution 	repo-0_price 	0
scalar tree_4_3_u04_r20_network.statistics 	stabilization_time 	860.7
scalar tree_4_3_u04_r20_network.statistics 	p_hit 	0.21137977084048
scalar tree_4_3_u04_r20_network.statistics 	interests 	25017.225
scalar tree_4_3_u04_r20_network.statistics 	data 	16900.4
scalar tree_4_3_u04_r20_network.statistics 	hdistance 	2.7238547672816
scalar tree_4_3_u04_r20_network.statistics 	avg_time 	0.004164352061
scalar tree_4_3_u04_r20_network.statistics 	downloads 	324668
scalar tree_4_3_u04_r20_network.statistics 	total_cost 	0
scalar tree_4_3_u04_r20_network.statistics 	total_replicas 	100000
scalar tree_4_3_u04_r20_network.statistics 	inner_hit 	0.35836916480836
scalar tree_4_3_u04_r20_network.node[0].core_layer 	interests[0] 	209797
scalar tree_4_3_u04_r20_network.node[0].core_layer 	repo_load[0] 	208317
scalar tree_4_3_u04_r20_network.node[0].core_layer 	data[0] 	0
scalar tree_4_3_u04_r20_network.node[0].core_layer 	repo_int[0] 	208317
scalar tree_4_3_u04_r20_network.node[0].content_store 	p_hit[0] 	0.0070544383380125
scalar tree_4_3_u04_r20_network.node[0].content_store 	hits[0] 	1480
scalar tree_4_3_u04_r20_network.node[0].content_store 	misses[0] 	208317
scalar tree_4_3_u04_r20_network.node[0].content_store 	decision_yes[0] 	208317
scalar tree_4_3_u04_r20_network.node[0].content_store 	decision_no[0] 	0
scalar tree_4_3_u04_r20_network.node[0].content_store 	decision_ratio[0] 	1
scalar tree_4_3_u04_r20_network.node[1].core_layer 	interests[1] 	73672
scalar tree_4_3_u04_r20_network.node[1].core_layer 	data[1] 	72367
scalar tree_4_3_u04_r20_network.node[1].content_store 	p_hit[1] 	0.017672928656749
scalar tree_4_3_u04_r20_network.node[1].content_store 	hits[1] 	1302
scalar tree_4_3_u04_r20_network.node[1].content_store 	misses[1] 	72370
scalar tree_4_3_u04_r20_network.node[1].content_store 	decision_yes[1] 	1159
scalar tree_4_3_u04_r20_network.node[1].content_store 	decision_no[1] 	71208
scalar tree_4_3_u04_r20_network.node[1].content_store 	decision_ratio[1] 	0.016015587215167
scalar tree_4_3_u04_r20_network.node[2].core_layer 	interests[2] 	95294
scalar tree_4_3_u04_r20_network.node[2].core_layer 	data[2] 	93454
scalar tree_4_3_u04_r20_network.node[2].content_store 	p_hit[2] 	0.019298171973052
scalar tree_4_3_u04_r20_network.node[2].content_store 	hits[2] 	1839
scalar tree_4_3_u04_r20_network.node[2].content_store 	misses[2] 	93455
scalar tree_4_3_u04_r20_network.node[2].content_store 	decision_yes[2] 	1925
scalar tree_4_3_u04_r20_network.node[2].content_store 	decision_no[2] 	91529
scalar tree_4_3_u04_r20_network.node[2].content_store 	decision_ratio[2] 	0.020598369251182
scalar tree_4_3_u04_r20_network.node[3].core_layer 	interests[3] 	48527
scalar tree_4_3_u04_r20_network.node[3].core_layer 	data[3] 	47224
scalar tree_4_3_u04_r20_network.node[3].content_store 	p_hit[3] 	0.026830424299874
scalar tree_4_3_u04_r20_network.node[3].content_store 	hits[3] 	1302
scalar tree_4_3_u04_r20_network.node[3].content_store 	misses[3] 	47225
scalar tree_4_3_u04_r20_network.node[3].content_store 	decision_yes[3] 	911
scalar tree_4_3_u04_r20_network.node[3].content_store 	decision_no[3] 	46313
scalar tree_4_3_u04_r20_network.node[3].content_store 	decision_ratio[3] 	0.019291038455023
scalar tree_4_3_u04_r20_network.node[4].core_layer 	interests[4] 	26513
scalar tree_4_3_u04_r20_network.node[4].core_layer 	data[4] 	25167
scalar tree_4_3_u04_r20_network.node[4].content_store 	p_hit[4] 	0.050729830649116
scalar tree_4_3_u04_r20_network.node[4].content_store 	hits[4] 	1345
scalar tree_4_3_u04_r20_network.node[4].content_store 	misses[4] 	25168
scalar tree_4_3_u04_r20_network.node[4].content_store 	decision_yes[4] 	1062
scalar tree_4_3_u04_r20_network.node[4].content_store 	decision_no[4] 	24105
scalar tree_4_3_u04_r20_network.node[4].content_store 	decision_ratio[4] 	0.042198116581237
scalar tree_4_3_u04_r20_network.node[5].core_layer 	interests[5] 	34889
scalar tree_4_3_u04_r20_network.node[5].core_layer 	data[5] 	33339
scalar tree_4_3_u04_r20_network.node[5].content_store 	p_hit[5] 	0.044426610106337
scalar tree_4_3_u04_r20_network.node[5].content_store 	hits[5] 	1550
scalar tree_4_3_u04_r20_network.node[5].content_store 	misses[5] 	33339
scalar tree_4_3_u04_r20_network.node[5].content_store 	decision_yes[5] 	1220
scalar tree_4_3_u04_r20_network.node[5].content_store 	decision_no[5] 	32119
scalar tree_4_3_u04_r20_network.node[5].content_store 	decision_ratio[5] 	0.03659377905756
scalar tree_4_3_u04_r20_network.node[6].core_layer 	interests[6] 	18667
scalar tree_4_3_u04_r20_network.node[6].core_layer 	data[6] 	17132
scalar tree_4_3_u04_r20_network.node[6].content_store 	p_hit[6] 	0.082230674452242
scalar tree_4_3_u04_r20_network.node[6].content_store 	hits[6] 	1535
scalar tree_4_3_u04_r20_network.node[6].content_store 	misses[6] 	17132
scalar tree_4_3_u04_r20_network.node[6].content_store 	decision_yes[6] 	986
scalar tree_4_3_u04_r20_network.node[6].content_store 	decision_no[6] 	16146
scalar tree_4_3_u04_r20_network.node[6].content_store 	decision_ratio[6] 	0.057553116974084
scalar tree_4_3_u04_r20_network.node[7].core_layer 	interests[7] 	43043
scalar tree_4_3_u04_r20_network.node[7].core_layer 	data[7] 	40907
scalar tree_4_3_u04_r20_network.node[7].content_store 	p_hit[7] 	0.04962479381084
scalar tree_4_3_u04_r20_network.node[7].content_store 	hits[7] 	2136
scalar tree_4_3_u04_r20_network.node[7].content_store 	misses[7] 	40907
scalar tree_4_3_u04_r20_network.node[7].content_store 	decision_yes[7] 	2094
scalar tree_4_3_u04_r20_network.node[7].content_store 	decision_no[7] 	38813
scalar tree_4_3_u04_r20_network.node[7].content_store 	decision_ratio[7] 	0.051189283007798
scalar tree_4_3_u04_r20_network.node[8].core_layer 	interests[8] 	26600
scalar tree_4_3_u04_r20_network.node[8].core_layer 	data[8] 	24894
scalar tree_4_3_u04_r20_network.node[8].content_store 	p_hit[8] 	0.064097744360902
scalar tree_4_3_u04_r20_network.node[8].content_store 	hits[8] 	1705
scalar tree_4_3_u04_r20_network.node[8].content_store 	misses[8] 	24895
scalar tree_4_3_u04_r20_network.node[8].content_store 	decision_yes[8] 	1550
scalar tree_4_3_u04_r20_network.node[8].content_store 	decision_no[8] 	23344
scalar tree_4_3_u04_r20_network.node[8].content_store 	decision_ratio[8] 	0.062263999357275
scalar tree_4_3_u04_r20_network.node[9].core_layer 	interests[9] 	10341
scalar tree_4_3_u04_r20_network.node[9].core_layer 	data[9] 	8701
scalar tree_4_3_u04_r20_network.node[9].content_store 	p_hit[9] 	0.15859201237791
scalar tree_4_3_u04_r20_network.node[9].content_store 	hits[9] 	1640
scalar tree_4_3_u04_r20_network.node[9].content_store 	misses[9] 	8701
scalar tree_4_3_u04_r20_network.node[9].content_store 	decision_yes[9] 	856
scalar tree_4_3_u04_r20_network.node[9].content_store 	decision_no[9] 	7845
scalar tree_4_3_u04_r20_network.node[9].content_store 	decision_ratio[9] 	0.098379496609585
scalar tree_4_3_u04_r20_network.node[10].core_layer 	interests[10] 	34277
scalar tree_4_3_u04_r20_network.node[10].core_layer 	data[10] 	32722
scalar tree_4_3_u04_r20_network.node[10].content_store 	p_hit[10] 	0.045365697114683
scalar tree_4_3_u04_r20_network.node[10].content_store 	hits[10] 	1555
scalar tree_4_3_u04_r20_network.node[10].content_store 	misses[10] 	32722
scalar tree_4_3_u04_r20_network.node[10].content_store 	decision_yes[10] 	1410
scalar tree_4_3_u04_r20_network.node[10].content_store 	decision_no[10] 	31312
scalar tree_4_3_u04_r20_network.node[10].content_store 	decision_ratio[10] 	0.043090275655522
scalar tree_4_3_u04_r20_network.node[11].core_layer 	interests[11] 	27280
scalar tree_4_3_u04_r20_network.node[11].core_layer 	data[11] 	25387
scalar tree_4_3_u04_r20_network.node[11].content_store 	p_hit[11] 	0.069354838709677
scalar tree_4_3_u04_r20_network.node[11].content_store 	hits[11] 	1892
scalar tree_4_3_u04_r20_network.node[11].content_store 	misses[11] 	25388
scalar tree_4_3_u04_r20_network.node[11].content_store 	decision_yes[11] 	1747
scalar tree_4_3_u04_r20_network.node[11].content_store 	decision_no[11] 	23640
scalar tree_4_3_u04_r20_network.node[11].content_store 	decision_ratio[11] 	0.068814747705519
scalar tree_4_3_u04_r20_network.node[12].core_layer 	interests[12] 	19170
scalar tree_4_3_u04_r20_network.node[12].core_layer 	data[12] 	17190
scalar tree_4_3_u04_r20_network.node[12].content_store 	p_hit[12] 	0.10318205529473
scalar tree_4_3_u04_r20_network.node[12].content_store 	hits[12] 	1978
scalar tree_4_3_u04_r20_network.node[12].content_store 	misses[12] 	17192
scalar tree_4_3_u04_r20_network.node[12].content_store 	decision_yes[12] 	1465
scalar tree_4_3_u04_r20_network.node[12].content_store 	decision_no[12] 	15725
scalar tree_4_3_u04_r20_network.node[12].content_store 	decision_ratio[12] 	0.08522396742292
scalar tree_4_3_u04_r20_network.node[13].core_layer 	interests[13] 	12246
scalar tree_4_3_u04_r20_network.node[13].core_layer 	data[13] 	8840
scalar tree_4_3_u04_r20_network.node[13].content_store 	p_hit[13] 	0.27813163481953
scalar tree_4_3_u04_r20_network.node[13].content_store 	hits[13] 	3406
scalar tree_4_3_u04_r20_network.node[13].content_store 	misses[13] 	8840
scalar tree_4_3_u04_r20_network.node[13].content_store 	decision_yes[13] 	388
scalar tree_4_3_u04_r20_network.node[13].content_store 	decision_no[13] 	8452
scalar tree_4_3_u04_r20_network.node[13].content_store 	decision_ratio[13] 	0.043891402714932
scalar tree_4_3_u04_r20_network.node[14].core_layer 	interests[14] 	12155
scalar tree_4_3_u04_r20_network.node[14].core_layer 	data[14] 	8669
scalar tree_4_3_u04_r20_network.node[14].content_store 	p_hit[14] 	0.28679555738379
scalar tree_4_3_u04_r20_network.node[14].content_store 	hits[14] 	3486
scalar tree_4_3_u04_r20_network.node[14].content_store 	misses[14] 	8669
scalar tree_4_3_u04_r20_network.node[14].content_store 	decision_yes[14] 	385
scalar tree_4_3_u04_r20_network.node[14].content_store 	decision_no[14] 	8284
scalar tree_4_3_u04_r20_network.node[14].content_store 	decision_ratio[14] 	0.044411120083055
scalar tree_4_3_u04_r20_network.node[15].core_layer 	interests[15] 	12114
scalar tree_4_3_u04_r20_network.node[15].core_layer 	data[15] 	8761
scalar tree_4_3_u04_r20_network.node[15].content_store 	p_hit[15] 	0.27678718837708
scalar tree_4_3_u04_r20_network.node[15].content_store 	hits[15] 	3353
scalar tree_4_3_u04_r20_network.node[15].content_store 	misses[15] 	8761
scalar tree_4_3_u04_r20_network.node[15].content_store 	decision_yes[15] 	384
scalar tree_4_3_u04_r20_network.node[15].content_store 	decision_no[15] 	8377
scalar tree_4_3_u04_r20_network.node[15].content_store 	decision_ratio[15] 	0.043830612943728
scalar tree_4_3_u04_r20_network.node[16].core_layer 	interests[16] 	12387
scalar tree_4_3_u04_r20_network.node[16].core_layer 	data[16] 	8841
scalar tree_4_3_u04_r20_network.node[16].content_store 	p_hit[16] 	0.28626786146767
scalar tree_4_3_u04_r20_network.node[16].content_store 	hits[16] 	3546
scalar tree_4_3_u04_r20_network.node[16].content_store 	misses[16] 	8841
scalar tree_4_3_u04_r20_network.node[16].content_store 	decision_yes[16] 	346
scalar tree_4_3_u04_r20_network.node[16].content_store 	decision_no[16] 	8495
scalar tree_4_3_u04_r20_network.node[16].content_store 	decision_ratio[16] 	0.039135844361498
scalar tree_4_3_u04_r20_network.node[17].core_layer 	interests[17] 	12220
scalar tree_4_3_u04_r20_network.node[17].core_layer 	data[17] 	8748
scalar tree_4_3_u04_r20_network.node[17].content_store 	p_hit[17] 	0.28412438625205
scalar tree_4_3_u04_r20_network.node[17].content_store 	hits[17] 	3472
scalar tree_4_3_u04_r20_network.node[17].content_store 	misses[17] 	8748
scalar tree_4_3_u04_r20_network.node[17].content_store 	decision_yes[17] 	347
scalar tree_4_3_u04_r20_network.node[17].content_store 	decision_no[17] 	8401
scalar tree_4_3_u04_r20_network.node[17].content_store 	decision_ratio[17] 	0.039666209419296
scalar tree_4_3_u04_r20_network.node[18].core_layer 	interests[18] 	12425
scalar tree_4_3_u04_r20_network.node[18].core_layer 	data[18] 	8845
scalar tree_4_3_u04_r20_network.node[18].content_store 	p_hit[18] 	0.28812877263581
scalar tree_4_3_u04_r20_network.node[18].content_store 	hits[18] 	3580
scalar tree_4_3_u04_r20_network.node[18].content_store 	misses[18] 	8845
scalar tree_4_3_u04_r20_network.node[18].content_store 	decision_yes[18] 	616
scalar tree_4_3_u04_r20_network.node[18].content_store 	decision_no[18] 	8229
scalar tree_4_3_u04_r20_network.node[18].content_store 	decision_ratio[18] 	0.069643866591295
scalar tree_4_3_u04_r20_network.node[19].core_layer 	interests[19] 	12072
scalar tree_4_3_u04_r20_network.node[19].core_layer 	data[19] 	8743
scalar tree_4_3_u04_r20_network.node[19].content_store 	p_hit[19] 	0.27576209410205
scalar tree_4_3_u04_r20_network.node[19].content_store 	hits[19] 	3329
scalar tree_4_3_u04_r20_network.node[19].content_store 	misses[19] 	8743
scalar tree_4_3_u04_r20_network.node[19].content_store 	decision_yes[19] 	343
scalar tree_4_3_u04_r20_network.node[19].content_store 	decision_no[19] 	8400
scalar tree_4_3_u04_r20_network.node[19].content_store 	decision_ratio[19] 	0.039231385108086
scalar tree_4_3_u04_r20_network.node[20].core_layer 	interests[20] 	12566
scalar tree_4_3_u04_r20_network.node[20].core_layer 	data[20] 	8920
scalar tree_4_3_u04_r20_network.node[20].content_store 	p_hit[20] 	0.29014801846252
scalar tree_4_3_u04_r20_network.node[20].content_store 	hits[20] 	3646
scalar tree_4_3_u04_r20_network.node[20].content_store 	misses[20] 	8920
scalar tree_4_3_u04_r20_network.node[20].content_store 	decision_yes[20] 	637
scalar tree_4_3_u04_r20_network.node[20].content_store 	decision_no[20] 	8283
scalar tree_4_3_u04_r20_network.node[20].content_store 	decision_ratio[20] 	0.071412556053812
scalar tree_4_3_u04_r20_network.node[21].core_layer 	interests[21] 	12409
scalar tree_4_3_u04_r20_network.node[21].core_layer 	data[21] 	8888
scalar tree_4_3_u04_r20_network.node[21].content_store 	p_hit[21] 	0.28374566846644
scalar tree_4_3_u04_r20_network.node[21].content_store 	hits[21] 	3521
scalar tree_4_3_u04_r20_network.node[21].content_store 	misses[21] 	8888
scalar tree_4_3_u04_r20_network.node[21].content_store 	decision_yes[21] 	343
scalar tree_4_3_u04_r20_network.node[21].content_store 	decision_no[21] 	8545
scalar tree_4_3_u04_r20_network.node[21].content_store 	decision_ratio[21] 	0.038591359135914
scalar tree_4_3_u04_r20_network.node[22].core_layer 	interests[22] 	12448
scalar tree_4_3_u04_r20_network.node[22].core_layer 	data[22] 	8886
scalar tree_4_3_u04_r20_network.node[22].content_store 	p_hit[22] 	0.28615038560411
scalar tree_4_3_u04_r20_network.node[22].content_store 	hits[22] 	3562
scalar tree_4_3_u04_r20_network.node[22].content_store 	misses[22] 	8886
scalar tree_4_3_u04_r20_network.node[22].content_store 	decision_yes[22] 	434
scalar tree_4_3_u04_r20_network.node[22].content_store 	decision_no[22] 	8452
scalar tree_4_3_u04_r20_network.node[22].content_store 	decision_ratio[22] 	0.048840873283817
scalar tree_4_3_u04_r20_network.node[23].core_layer 	interests[23] 	12211
scalar tree_4_3_u04_r20_network.node[23].core_layer 	data[23] 	8674
scalar tree_4_3_u04_r20_network.node[23].content_store 	p_hit[23] 	0.28965686675948
scalar tree_4_3_u04_r20_network.node[23].content_store 	hits[23] 	3537
scalar tree_4_3_u04_r20_network.node[23].content_store 	misses[23] 	8674
scalar tree_4_3_u04_r20_network.node[23].content_store 	decision_yes[23] 	402
scalar tree_4_3_u04_r20_network.node[23].content_store 	decision_no[23] 	8272
scalar tree_4_3_u04_r20_network.node[23].content_store 	decision_ratio[23] 	0.046345400046115
scalar tree_4_3_u04_r20_network.node[24].core_layer 	interests[24] 	12420
scalar tree_4_3_u04_r20_network.node[24].core_layer 	data[24] 	8852
scalar tree_4_3_u04_r20_network.node[24].content_store 	p_hit[24] 	0.28735909822866
scalar tree_4_3_u04_r20_network.node[24].content_store 	hits[24] 	3569
scalar tree_4_3_u04_r20_network.node[24].content_store 	misses[24] 	8851
scalar tree_4_3_u04_r20_network.node[24].content_store 	decision_yes[24] 	678
scalar tree_4_3_u04_r20_network.node[24].content_store 	decision_no[24] 	8174
scalar tree_4_3_u04_r20_network.node[24].content_store 	decision_ratio[24] 	0.076592860370538
scalar tree_4_3_u04_r20_network.node[25].core_layer 	interests[25] 	12560
scalar tree_4_3_u04_r20_network.node[25].core_layer 	data[25] 	8760
scalar tree_4_3_u04_r20_network.node[25].content_store 	p_hit[25] 	0.30254777070064
scalar tree_4_3_u04_r20_network.node[25].content_store 	hits[25] 	3800
scalar tree_4_3_u04_r20_network.node[25].content_store 	misses[25] 	8760
scalar tree_4_3_u04_r20_network.node[25].content_store 	decision_yes[25] 	681
scalar tree_4_3_u04_r20_network.node[25].content_store 	decision_no[25] 	8079
scalar tree_4_3_u04_r20_network.node[25].content_store 	decision_ratio[25] 	0.077739726027397
scalar tree_4_3_u04_r20_network.node[26].core_layer 	interests[26] 	12431
scalar tree_4_3_u04_r20_network.node[26].core_layer 	data[26] 	8894
scalar tree_4_3_u04_r20_network.node[26].content_store 	p_hit[26] 	0.28453060896147
scalar tree_4_3_u04_r20_network.node[26].content_store 	hits[26] 	3537
scalar tree_4_3_u04_r20_network.node[26].content_store 	misses[26] 	8894
scalar tree_4_3_u04_r20_network.node[26].content_store 	decision_yes[26] 	430
scalar tree_4_3_u04_r20_network.node[26].content_store 	decision_no[26] 	8464
scalar tree_4_3_u04_r20_network.node[26].content_store 	decision_ratio[26] 	0.048347200359793
scalar tree_4_3_u04_r20_network.node[27].core_layer 	interests[27] 	12104
scalar tree_4_3_u04_r20_network.node[27].core_layer 	data[27] 	8649
scalar tree_4_3_u04_r20_network.node[27].content_store 	p_hit[27] 	0.28544282881692
scalar tree_4_3_u04_r20_network.node[27].content_store 	hits[27] 	3455
scalar tree_4_3_u04_r20_network.node[27].content_store 	misses[27] 	8649
scalar tree_4_3_u04_r20_network.node[27].content_store 	decision_yes[27] 	378
scalar tree_4_3_u04_r20_network.node[27].content_store 	decision_no[27] 	8271
scalar tree_4_3_u04_r20_network.node[27].content_store 	decision_ratio[27] 	0.043704474505723
scalar tree_4_3_u04_r20_network.node[28].core_layer 	interests[28] 	12341
scalar tree_4_3_u04_r20_network.node[28].core_layer 	data[28] 	8800
scalar tree_4_3_u04_r20_network.node[28].content_store 	p_hit[28] 	0.28692974637388
scalar tree_4_3_u04_r20_network.node[28].content_store 	hits[28] 	3541
scalar tree_4_3_u04_r20_network.node[28].content_store 	misses[28] 	8800
scalar tree_4_3_u04_r20_network.node[28].content_store 	decision_yes[28] 	683
scalar tree_4_3_u04_r20_network.node[28].content_store 	decision_no[28] 	8117
scalar tree_4_3_u04_r20_network.node[28].content_store 	decision_ratio[28] 	0.077613636363636
scalar tree_4_3_u04_r20_network.node[29].core_layer 	interests[29] 	12380
scalar tree_4_3_u04_r20_network.node[29].core_layer 	data[29] 	8724
scalar tree_4_3_u04_r20_network.node[29].content_store 	p_hit[29] 	0.29523424878837
scalar tree_4_3_u04_r20_network.node[29].content_store 	hits[29] 	3655
scalar tree_4_3_u04_r20_network.node[29].content_store 	misses[29] 	8725
scalar tree_4_3_u04_r20_network.node[29].content_store 	decision_yes[29] 	627
scalar tree_4_3_u04_r20_network.node[29].content_store 	decision_no[29] 	8097
scalar tree_4_3_u04_r20_network.node[29].content_store 	decision_ratio[29] 	0.071870701513067
scalar tree_4_3_u04_r20_network.node[30].core_layer 	interests[30] 	12163
scalar tree_4_3_u04_r20_network.node[30].core_layer 	data[30] 	8714
scalar tree_4_3_u04_r20_network.node[30].content_store 	p_hit[30] 	0.28356490997287
scalar tree_4_3_u04_r20_network.node[30].content_store 	hits[30] 	3449
scalar tree_4_3_u04_r20_network.node[30].content_store 	misses[30] 	8714
scalar tree_4_3_u04_r20_network.node[30].content_store 	decision_yes[30] 	357
scalar tree_4_3_u04_r20_network.node[30].content_store 	decision_no[30] 	8357
scalar tree_4_3_u04_r20_network.node[30].content_store 	decision_ratio[30] 	0.04096855634611
scalar tree_4_3_u04_r20_network.node[31].core_layer 	interests[31] 	12109
scalar tree_4_3_u04_r20_network.node[31].core_layer 	data[31] 	8675
scalar tree_4_3_u04_r20_network.node[31].content_store 	p_hit[31] 	0.28359071764803
scalar tree_4_3_u04_r20_network.node[31].content_store 	hits[31] 	3434
scalar tree_4_3_u04_r20_network.node[31].content_store 	misses[31] 	8675
scalar tree_4_3_u04_r20_network.node[31].content_store 	decision_yes[31] 	387
scalar tree_4_3_u04_r20_network.node[31].content_store 	decision_no[31] 	8288
scalar tree_4_3_u04_r20_network.node[31].content_store 	decision_ratio[31] 	0.044610951008646
scalar tree_4_3_u04_r20_network.node[32].core_layer 	interests[32] 	12278
scalar tree_4_3_u04_r20_network.node[32].core_layer 	data[32] 	8872
scalar tree_4_3_u04_r20_network.node[32].content_store 	p_hit[32] 	0.27732529727969
scalar tree_4_3_u04_r20_network.node[32].content_store 	hits[32] 	3405
scalar tree_4_3_u04_r20_network.node[32].content_store 	misses[32] 	8873
scalar tree_4_3_u04_r20_network.node[32].content_store 	decision_yes[32] 	380
scalar tree_4_3_u04_r20_network.node[32].content_store 	decision_no[32] 	8492
scalar tree_4_3_u04_r20_network.node[32].content_store 	decision_ratio[32] 	0.04283137962128
scalar tree_4_3_u04_r20_network.node[33].core_layer 	interests[33] 	12534
scalar tree_4_3_u04_r20_network.node[33].core_layer 	data[33] 	8816
scalar tree_4_3_u04_r20_network.node[33].content_store 	p_hit[33] 	0.29655337482049
scalar tree_4_3_u04_r20_network.node[33].content_store 	hits[33] 	3717
scalar tree_4_3_u04_r20_network.node[33].content_store 	misses[33] 	8817
scalar tree_4_3_u04_r20_network.node[33].content_store 	decision_yes[33] 	664
scalar tree_4_3_u04_r20_network.node[33].content_store 	decision_no[33] 	8152
scalar tree_4_3_u04_r20_network.node[33].content_store 	decision_ratio[33] 	0.075317604355717
scalar tree_4_3_u04_r20_network.node[34].core_layer 	interests[34] 	12425
scalar tree_4_3_u04_r20_network.node[34].core_layer 	data[34] 	8999
scalar tree_4_3_u04_r20_network.node[34].content_store 	p_hit[34] 	0.27573440643863
scalar tree_4_3_u04_r20_network.node[34].content_store 	hits[34] 	3426
scalar tree_4_3_u04_r20_network.node[34].content_store 	misses[34] 	8999
scalar tree_4_3_u04_r20_network.node[34].content_store 	decision_yes[34] 	408
scalar tree_4_3_u04_r20_network.node[34].content_store 	decision_no[34] 	8591
scalar tree_4_3_u04_r20_network.node[34].content_store 	decision_ratio[34] 	0.045338370930103
scalar tree_4_3_u04_r20_network.node[35].core_layer 	interests[35] 	12206
scalar tree_4_3_u04_r20_network.node[35].core_layer 	data[35] 	8803
scalar tree_4_3_u04_r20_network.node[35].content_store 	p_hit[35] 	0.2787153858758
scalar tree_4_3_u04_r20_network.node[35].content_store 	hits[35] 	3402
scalar tree_4_3_u04_r20_network.node[35].content_store 	misses[35] 	8804
scalar tree_4_3_u04_r20_network.node[35].content_store 	decision_yes[35] 	386
scalar tree_4_3_u04_r20_network.node[35].content_store 	decision_no[35] 	8417
scalar tree_4_3_u04_r20_network.node[35].content_store 	decision_ratio[35] 	0.043848687947291
scalar tree_4_3_u04_r20_network.node[36].core_layer 	interests[36] 	12749
scalar tree_4_3_u04_r20_network.node[36].core_layer 	data[36] 	8968
scalar tree_4_3_u04_r20_network.node[36].content_store 	p_hit[36] 	0.29657228017884
scalar tree_4_3_u04_r20_network.node[36].content_store 	hits[36] 	3781
scalar tree_4_3_u04_r20_network.node[36].content_store 	misses[36] 	8968
scalar tree_4_3_u04_r20_network.node[36].content_store 	decision_yes[36] 	651
scalar tree_4_3_u04_r20_network.node[36].content_store 	decision_no[36] 	8317
scalar tree_4_3_u04_r20_network.node[36].content_store 	decision_ratio[36] 	0.072591436217663
scalar tree_4_3_u04_r20_network.node[37].core_layer 	interests[37] 	12264
scalar tree_4_3_u04_r20_network.node[37].core_layer 	data[37] 	8652
scalar tree_4_3_u04_r20_network.node[37].content_store 	p_hit[37] 	0.29452054794521
scalar tree_4_3_u04_r20_network.node[37].content_store 	hits[37] 	3612
scalar tree_4_3_u04_r20_network.node[37].content_store 	misses[37] 	8652
scalar tree_4_3_u04_r20_network.node[37].content_store 	decision_yes[37] 	679
scalar tree_4_3_u04_r20_network.node[37].content_store 	decision_no[37] 	7973
scalar tree_4_3_u04_r20_network.node[37].content_store 	decision_ratio[37] 	0.078478964401294
scalar tree_4_3_u04_r20_network.node[38].core_layer 	interests[38] 	12207
scalar tree_4_3_u04_r20_network.node[38].core_layer 	data[38] 	8749
scalar tree_4_3_u04_r20_network.node[38].content_store 	p_hit[38] 	0.2831981649873
scalar tree_4_3_u04_r20_network.node[38].content_store 	hits[38] 	3457
scalar tree_4_3_u04_r20_network.node[38].content_store 	misses[38] 	8750
scalar tree_4_3_u04_r20_network.node[38].content_store 	decision_yes[38] 	384
scalar tree_4_3_u04_r20_network.node[38].content_store 	decision_no[38] 	8365
scalar tree_4_3_u04_r20_network.node[38].content_store 	decision_ratio[38] 	0.043890730369185
scalar tree_4_3_u04_r20_network.node[39].core_layer 	interests[39] 	12195
scalar tree_4_3_u04_r20_network.node[39].core_layer 	data[39] 	8790
scalar tree_4_3_u04_r20_network.node[39].content_store 	p_hit[39] 	0.27921279212792
scalar tree_4_3_u04_r20_network.node[39].content_store 	hits[39] 	3405
scalar tree_4_3_u04_r20_network.node[39].content_store 	misses[39] 	8790
scalar tree_4_3_u04_r20_network.node[39].content_store 	decision_yes[39] 	423
scalar tree_4_3_u04_r20_network.node[39].content_store 	decision_no[39] 	8367
scalar tree_4_3_u04_r20_network.node[39].content_store 	decision_ratio[39] 	0.048122866894198
scalar tree_4_3_u04_r20_network.client[13] 	hdistance[13] 	2.7632822213013
scalar tree_4_3_u04_r20_network.client[13] 	downloads[13] 	12065
scalar tree_4_3_u04_r20_network.client[13] 	avg_time[13] 	0.004215562422
scalar tree_4_3_u04_r20_network.client[14] 	hdistance[14] 	2.7316299265197
scalar tree_4_3_u04_r20_network.client[14] 	downloads[14] 	11976
scalar tree_4_3_u04_r20_network.client[14] 	avg_time[14] 	0.004164639597
scalar tree_4_3_u04_r20_network.client[15] 	hdistance[15] 	2.7665884718499
scalar tree_4_3_u04_r20_network.client[15] 	downloads[15] 	11936
scalar tree_4_3_u04_r20_network.client[15] 	avg_time[15] 	0.004222587922
scalar tree_4_3_u04_r20_network.client[16] 	hdistance[16] 	2.7393547330495
scalar tree_4_3_u04_r20_network.client[16] 	downloads[16] 	12212
scalar tree_4_3_u04_r20_network.client[16] 	avg_time[16] 	0.004170345917
scalar tree_4_3_u04_r20_network.client[17] 	hdistance[17] 	2.7422731804586
scalar tree_4_3_u04_r20_network.client[17] 	downloads[17] 	12036
scalar tree_4_3_u04_r20_network.client[17] 	avg_time[17] 	0.004179790929
scalar tree_4_3_u04_r20_network.client[18] 	hdistance[18] 	2.7380220875197
scalar tree_4_3_u04_r20_network.client[18] 	downloads[18] 	12043
scalar tree_4_3_u04_r20_network.client[18] 	avg_time[18] 	0.004162747127
scalar tree_4_3_u04_r20_network.client[19] 	hdistance[19] 	2.77443735304
scalar tree_4_3_u04_r20_network.client[19] 	downloads[19] 	11908
scalar tree_4_3_u04_r20_network.client[19] 	avg_time[19] 	0.00422807899
scalar tree_4_3_u04_r20_network.client[20] 	hdistance[20] 	2.7197410472834
scalar tree_4_3_u04_r20_network.client[20] 	downloads[20] 	12203
scalar tree_4_3_u04_r20_network.client[20] 	avg_time[20] 	0.004137504113
scalar tree_4_3_u04_r20_network.client[21] 	hdistance[21] 	2.7405502489999
scalar tree_4_3_u04_r20_network.client[21] 	downloads[21] 	12249
scalar tree_4_3_u04_r20_network.client[21] 	avg_time[21] 	0.004178460471
scalar tree_4_3_u04_r20_network.client[22] 	hdistance[22] 	2.7109907247804
scalar tree_4_3_u04_r20_network.client[22] 	downloads[22] 	12183
scalar tree_4_3_u04_r20_network.client[22] 	avg_time[22] 	0.004152340384
scalar tree_4_3_u04_r20_network.client[23] 	hdistance[23] 	2.7017837702035
scalar tree_4_3_u04_r20_network.client[23] 	downloads[23] 	11941
scalar tree_4_3_u04_r20_network.client[23] 	avg_time[23] 	0.004139683801
scalar tree_4_3_u04_r20_network.client[24] 	hdistance[24] 	2.7091197594789
scalar tree_4_3_u04_r20_network.client[24] 	downloads[24] 	11974
scalar tree_4_3_u04_r20_network.client[24] 	avg_time[24] 	0.004143808602
scalar tree_4_3_u04_r20_network.client[25] 	hdistance[25] 	2.6800668616799
scalar tree_4_3_u04_r20_network.client[25] 	downloads[25] 	11965
scalar tree_4_3_u04_r20_network.client[25] 	avg_time[25] 	0.004098952291
scalar tree_4_3_u04_r20_network.client[26] 	hdistance[26] 	2.7003030551233
scalar tree_4_3_u04_r20_network.client[26] 	downloads[26] 	12209
scalar tree_4_3_u04_r20_network.client[26] 	avg_time[26] 	0.004149170449
scalar tree_4_3_u04_r20_network.client[27] 	hdistance[27] 	2.7070503112906
scalar tree_4_3_u04_r20_network.client[27] 	downloads[27] 	11886
scalar tree_4_3_u04_r20_network.client[27] 	avg_time[27] 	0.004153959659
scalar tree_4_3_u04_r20_network.client[28] 	hdistance[28] 	2.7191503708699
scalar tree_4_3_u04_r20_network.client[28] 	downloads[28] 	11864
scalar tree_4_3_u04_r20_network.client[28] 	avg_time[28] 	0.004157279583
scalar tree_4_3_u04_r20_network.client[29] 	hdistance[29] 	2.6938706968933
scalar tree_4_3_u04_r20_network.client[29] 	downloads[29] 	11910
scalar tree_4_3_u04_r20_network.client[29] 	avg_time[29] 	0.004120724012
scalar tree_4_3_u04_r20_network.client[30] 	hdistance[30] 	2.7108243130724
scalar tree_4_3_u04_r20_network.client[30] 	downloads[30] 	12010
scalar tree_4_3_u04_r20_network.client[30] 	avg_time[30] 	0.00415853158
scalar tree_4_3_u04_r20_network.client[31] 	hdistance[31] 	2.7232667450059
scalar tree_4_3_u04_r20_network.client[31] 	downloads[31] 	11914
scalar tree_4_3_u04_r20_network.client[31] 	avg_time[31] 	0.004166691658
scalar tree_4_3_u04_r20_network.client[32] 	hdistance[32] 	2.7403885903266
scalar tree_4_3_u04_r20_network.client[32] 	downloads[32] 	12095
scalar tree_4_3_u04_r20_network.client[32] 	avg_time[32] 	0.004197098424
scalar tree_4_3_u04_r20_network.client[33] 	hdistance[33] 	2.6946628051303
scalar tree_4_3_u04_r20_network.client[33] 	downloads[33] 	12085
scalar tree_4_3_u04_r20_network.client[33] 	avg_time[33] 	0.004109172408
scalar tree_4_3_u04_r20_network.client[34] 	hdistance[34] 	2.7348733969089
scalar tree_4_3_u04_r20_network.client[34] 	downloads[34] 	12164
scalar tree_4_3_u04_r20_network.client[34] 	avg_time[34] 	0.004209544944
scalar tree_4_3_u04_r20_network.client[35] 	hdistance[35] 	2.7248513275819
scalar tree_4_3_u04_r20_network.client[35] 	downloads[35] 	11939
scalar tree_4_3_u04_r20_network.client[35] 	avg_time[35] 	0.004197038542
scalar tree_4_3_u04_r20_network.client[36] 	hdistance[36] 	2.7115669797331
scalar tree_4_3_u04_r20_network.client[36] 	downloads[36] 	12138
scalar tree_4_3_u04_r20_network.client[36] 	avg_time[36] 	0.004151422226
scalar tree_4_3_u04_r20_network.client[37] 	hdistance[37] 	2.7026476578411
scalar tree_4_3_u04_r20_network.client[37] 	downloads[37] 	11784
scalar tree_4_3_u04_r20_network.client[37] 	avg_time[37] 	0.004124233294
scalar tree_4_3_u04_r20_network.client[38] 	hdistance[38] 	2.7294098032677
scalar tree_4_3_u04_r20_network.client[38] 	downloads[38] 	11996
scalar tree_4_3_u04_r20_network.client[38] 	avg_time[38] 	0.004170887304
scalar tree_4_3_u04_r20_network.client[39] 	hdistance[39] 	2.733372277393
scalar tree_4_3_u04_r20_network.client[39] 	downloads[39] 	11983
scalar tree_4_3_u04_r20_network.client[39] 	avg_time[39] 	0.004177249017
