version 2
run General-54-20160831-19:48:16-8710
attr a 0.9
attr cd ffc
attr configname General
attr cr lru
attr datetime 20160831-19:48:16
attr experiment General
attr fsize 1
attr inifile hw5115/scenario_Y/omnetp.ini
attr iterationvars "$name=tree_4_3, $un=00, $rep=19, $cd=ffc, $cr=lru, $fsize=1, $a=0.9, $sl=nrr, $ttl=1000, $variance=0.05"
attr iterationvars2 "$name=tree_4_3, $un=00, $rep=19, $cd=ffc, $cr=lru, $fsize=1, $a=0.9, $sl=nrr, $ttl=1000, $variance=0.05, $repetition=0"
attr measurement "$name=tree_4_3, $un=00, $rep=19, $cd=ffc, $cr=lru, $fsize=1, $a=0.9, $sl=nrr, $ttl=1000, $variance=0.05"
attr name tree_4_3
attr network networks.${name}_u${un}_r${rep}_network
attr processid 8710
attr rep 19
attr repetition 0
attr replication #0
attr resultdir results
attr runnumber 54
attr seedset 19
attr sl nrr
attr ttl 1000
attr un 00
attr variance 0.05

scalar . 	a 	0.9
scalar . 	fsize 	1
scalar . 	rep 	19
scalar . 	ttl 	1000
scalar . 	un 	00
scalar . 	variance 	0.05
scalar tree_4_3_u00_r19_network.content_distribution 	repo-0 	0
scalar tree_4_3_u00_r19_network.content_distribution 	client-0 	13
scalar tree_4_3_u00_r19_network.content_distribution 	client-1 	14
scalar tree_4_3_u00_r19_network.content_distribution 	client-2 	15
scalar tree_4_3_u00_r19_network.content_distribution 	client-3 	16
scalar tree_4_3_u00_r19_network.content_distribution 	client-4 	17
scalar tree_4_3_u00_r19_network.content_distribution 	client-5 	18
scalar tree_4_3_u00_r19_network.content_distribution 	client-6 	19
scalar tree_4_3_u00_r19_network.content_distribution 	client-7 	20
scalar tree_4_3_u00_r19_network.content_distribution 	client-8 	21
scalar tree_4_3_u00_r19_network.content_distribution 	client-9 	22
scalar tree_4_3_u00_r19_network.content_distribution 	client-10 	23
scalar tree_4_3_u00_r19_network.content_distribution 	client-11 	24
scalar tree_4_3_u00_r19_network.content_distribution 	client-12 	25
scalar tree_4_3_u00_r19_network.content_distribution 	client-13 	26
scalar tree_4_3_u00_r19_network.content_distribution 	client-14 	27
scalar tree_4_3_u00_r19_network.content_distribution 	client-15 	28
scalar tree_4_3_u00_r19_network.content_distribution 	client-16 	29
scalar tree_4_3_u00_r19_network.content_distribution 	client-17 	30
scalar tree_4_3_u00_r19_network.content_distribution 	client-18 	31
scalar tree_4_3_u00_r19_network.content_distribution 	client-19 	32
scalar tree_4_3_u00_r19_network.content_distribution 	client-20 	33
scalar tree_4_3_u00_r19_network.content_distribution 	client-21 	34
scalar tree_4_3_u00_r19_network.content_distribution 	client-22 	35
scalar tree_4_3_u00_r19_network.content_distribution 	client-23 	36
scalar tree_4_3_u00_r19_network.content_distribution 	client-24 	37
scalar tree_4_3_u00_r19_network.content_distribution 	client-25 	38
scalar tree_4_3_u00_r19_network.content_distribution 	client-26 	39
scalar tree_4_3_u00_r19_network.content_distribution 	repo-0_card 	100000
scalar tree_4_3_u00_r19_network.content_distribution 	repo-0_price 	0
scalar tree_4_3_u00_r19_network.statistics 	stabilization_time 	843.2
scalar tree_4_3_u00_r19_network.statistics 	p_hit 	0.22130793341329
scalar tree_4_3_u00_r19_network.statistics 	interests 	25007.675
scalar tree_4_3_u00_r19_network.statistics 	data 	16901
scalar tree_4_3_u00_r19_network.statistics 	hdistance 	2.6853515090971
scalar tree_4_3_u00_r19_network.statistics 	avg_time 	0.004169768947
scalar tree_4_3_u00_r19_network.statistics 	downloads 	324258
scalar tree_4_3_u00_r19_network.statistics 	total_cost 	0
scalar tree_4_3_u00_r19_network.statistics 	total_replicas 	100000
scalar tree_4_3_u00_r19_network.statistics 	inner_hit 	0.39955529239063
scalar tree_4_3_u00_r19_network.node[0].core_layer 	interests[0] 	198006
scalar tree_4_3_u00_r19_network.node[0].core_layer 	repo_load[0] 	194699
scalar tree_4_3_u00_r19_network.node[0].core_layer 	data[0] 	0
scalar tree_4_3_u00_r19_network.node[0].core_layer 	repo_int[0] 	194699
scalar tree_4_3_u00_r19_network.node[0].content_store 	p_hit[0] 	0.016701514095532
scalar tree_4_3_u00_r19_network.node[0].content_store 	hits[0] 	3307
scalar tree_4_3_u00_r19_network.node[0].content_store 	misses[0] 	194699
scalar tree_4_3_u00_r19_network.node[0].content_store 	decision_yes[0] 	1039
scalar tree_4_3_u00_r19_network.node[0].content_store 	decision_no[0] 	193660
scalar tree_4_3_u00_r19_network.node[0].content_store 	decision_ratio[0] 	0.0053364424059702
scalar tree_4_3_u00_r19_network.node[1].core_layer 	interests[1] 	71994
scalar tree_4_3_u00_r19_network.node[1].core_layer 	data[1] 	69914
scalar tree_4_3_u00_r19_network.node[1].content_store 	p_hit[1] 	0.02889129649693
scalar tree_4_3_u00_r19_network.node[1].content_store 	hits[1] 	2080
scalar tree_4_3_u00_r19_network.node[1].content_store 	misses[1] 	69914
scalar tree_4_3_u00_r19_network.node[1].content_store 	decision_yes[1] 	463
scalar tree_4_3_u00_r19_network.node[1].content_store 	decision_no[1] 	69451
scalar tree_4_3_u00_r19_network.node[1].content_store 	decision_ratio[1] 	0.0066224218325371
scalar tree_4_3_u00_r19_network.node[2].core_layer 	interests[2] 	71689
scalar tree_4_3_u00_r19_network.node[2].core_layer 	data[2] 	69550
scalar tree_4_3_u00_r19_network.node[2].content_store 	p_hit[2] 	0.029837213519508
scalar tree_4_3_u00_r19_network.node[2].content_store 	hits[2] 	2139
scalar tree_4_3_u00_r19_network.node[2].content_store 	misses[2] 	69550
scalar tree_4_3_u00_r19_network.node[2].content_store 	decision_yes[2] 	477
scalar tree_4_3_u00_r19_network.node[2].content_store 	decision_no[2] 	69073
scalar tree_4_3_u00_r19_network.node[2].content_store 	decision_ratio[2] 	0.0068583752695902
scalar tree_4_3_u00_r19_network.node[3].core_layer 	interests[3] 	72208
scalar tree_4_3_u00_r19_network.node[3].core_layer 	data[3] 	70279
scalar tree_4_3_u00_r19_network.node[3].content_store 	p_hit[3] 	0.026700642588079
scalar tree_4_3_u00_r19_network.node[3].content_store 	hits[3] 	1928
scalar tree_4_3_u00_r19_network.node[3].content_store 	misses[3] 	70280
scalar tree_4_3_u00_r19_network.node[3].content_store 	decision_yes[3] 	504
scalar tree_4_3_u00_r19_network.node[3].content_store 	decision_no[3] 	69775
scalar tree_4_3_u00_r19_network.node[3].content_store 	decision_ratio[3] 	0.0071714167816844
scalar tree_4_3_u00_r19_network.node[4].core_layer 	interests[4] 	27450
scalar tree_4_3_u00_r19_network.node[4].core_layer 	data[4] 	25327
scalar tree_4_3_u00_r19_network.node[4].content_store 	p_hit[4] 	0.077340619307832
scalar tree_4_3_u00_r19_network.node[4].content_store 	hits[4] 	2123
scalar tree_4_3_u00_r19_network.node[4].content_store 	misses[4] 	25327
scalar tree_4_3_u00_r19_network.node[4].content_store 	decision_yes[4] 	290
scalar tree_4_3_u00_r19_network.node[4].content_store 	decision_no[4] 	25037
scalar tree_4_3_u00_r19_network.node[4].content_store 	decision_ratio[4] 	0.011450230978797
scalar tree_4_3_u00_r19_network.node[5].core_layer 	interests[5] 	27672
scalar tree_4_3_u00_r19_network.node[5].core_layer 	data[5] 	25606
scalar tree_4_3_u00_r19_network.node[5].content_store 	p_hit[5] 	0.07466030644695
scalar tree_4_3_u00_r19_network.node[5].content_store 	hits[5] 	2066
scalar tree_4_3_u00_r19_network.node[5].content_store 	misses[5] 	25606
scalar tree_4_3_u00_r19_network.node[5].content_store 	decision_yes[5] 	314
scalar tree_4_3_u00_r19_network.node[5].content_store 	decision_no[5] 	25292
scalar tree_4_3_u00_r19_network.node[5].content_store 	decision_ratio[5] 	0.012262750917754
scalar tree_4_3_u00_r19_network.node[6].core_layer 	interests[6] 	27706
scalar tree_4_3_u00_r19_network.node[6].core_layer 	data[6] 	25498
scalar tree_4_3_u00_r19_network.node[6].content_store 	p_hit[6] 	0.079693929112828
scalar tree_4_3_u00_r19_network.node[6].content_store 	hits[6] 	2208
scalar tree_4_3_u00_r19_network.node[6].content_store 	misses[6] 	25498
scalar tree_4_3_u00_r19_network.node[6].content_store 	decision_yes[6] 	264
scalar tree_4_3_u00_r19_network.node[6].content_store 	decision_no[6] 	25234
scalar tree_4_3_u00_r19_network.node[6].content_store 	decision_ratio[6] 	0.010353753235548
scalar tree_4_3_u00_r19_network.node[7].core_layer 	interests[7] 	27805
scalar tree_4_3_u00_r19_network.node[7].core_layer 	data[7] 	25571
scalar tree_4_3_u00_r19_network.node[7].content_store 	p_hit[7] 	0.080345261643589
scalar tree_4_3_u00_r19_network.node[7].content_store 	hits[7] 	2234
scalar tree_4_3_u00_r19_network.node[7].content_store 	misses[7] 	25571
scalar tree_4_3_u00_r19_network.node[7].content_store 	decision_yes[7] 	308
scalar tree_4_3_u00_r19_network.node[7].content_store 	decision_no[7] 	25263
scalar tree_4_3_u00_r19_network.node[7].content_store 	decision_ratio[7] 	0.012044894607172
scalar tree_4_3_u00_r19_network.node[8].core_layer 	interests[8] 	27479
scalar tree_4_3_u00_r19_network.node[8].core_layer 	data[8] 	25307
scalar tree_4_3_u00_r19_network.node[8].content_store 	p_hit[8] 	0.079005786236763
scalar tree_4_3_u00_r19_network.node[8].content_store 	hits[8] 	2171
scalar tree_4_3_u00_r19_network.node[8].content_store 	misses[8] 	25308
scalar tree_4_3_u00_r19_network.node[8].content_store 	decision_yes[8] 	297
scalar tree_4_3_u00_r19_network.node[8].content_store 	decision_no[8] 	25010
scalar tree_4_3_u00_r19_network.node[8].content_store 	decision_ratio[8] 	0.011735883352432
scalar tree_4_3_u00_r19_network.node[9].core_layer 	interests[9] 	27473
scalar tree_4_3_u00_r19_network.node[9].core_layer 	data[9] 	25269
scalar tree_4_3_u00_r19_network.node[9].content_store 	p_hit[9] 	0.080224220143414
scalar tree_4_3_u00_r19_network.node[9].content_store 	hits[9] 	2204
scalar tree_4_3_u00_r19_network.node[9].content_store 	misses[9] 	25269
scalar tree_4_3_u00_r19_network.node[9].content_store 	decision_yes[9] 	297
scalar tree_4_3_u00_r19_network.node[9].content_store 	decision_no[9] 	24972
scalar tree_4_3_u00_r19_network.node[9].content_store 	decision_ratio[9] 	0.011753531995726
scalar tree_4_3_u00_r19_network.node[10].core_layer 	interests[10] 	27827
scalar tree_4_3_u00_r19_network.node[10].core_layer 	data[10] 	25714
scalar tree_4_3_u00_r19_network.node[10].content_store 	p_hit[10] 	0.075933445933805
scalar tree_4_3_u00_r19_network.node[10].content_store 	hits[10] 	2113
scalar tree_4_3_u00_r19_network.node[10].content_store 	misses[10] 	25714
scalar tree_4_3_u00_r19_network.node[10].content_store 	decision_yes[10] 	308
scalar tree_4_3_u00_r19_network.node[10].content_store 	decision_no[10] 	25406
scalar tree_4_3_u00_r19_network.node[10].content_store 	decision_ratio[10] 	0.011977910865676
scalar tree_4_3_u00_r19_network.node[11].core_layer 	interests[11] 	27857
scalar tree_4_3_u00_r19_network.node[11].core_layer 	data[11] 	25672
scalar tree_4_3_u00_r19_network.node[11].content_store 	p_hit[11] 	0.078436299673332
scalar tree_4_3_u00_r19_network.node[11].content_store 	hits[11] 	2185
scalar tree_4_3_u00_r19_network.node[11].content_store 	misses[11] 	25672
scalar tree_4_3_u00_r19_network.node[11].content_store 	decision_yes[11] 	307
scalar tree_4_3_u00_r19_network.node[11].content_store 	decision_no[11] 	25365
scalar tree_4_3_u00_r19_network.node[11].content_store 	decision_ratio[11] 	0.011958554066687
scalar tree_4_3_u00_r19_network.node[12].core_layer 	interests[12] 	27501
scalar tree_4_3_u00_r19_network.node[12].core_layer 	data[12] 	25302
scalar tree_4_3_u00_r19_network.node[12].content_store 	p_hit[12] 	0.079924366386677
scalar tree_4_3_u00_r19_network.node[12].content_store 	hits[12] 	2198
scalar tree_4_3_u00_r19_network.node[12].content_store 	misses[12] 	25303
scalar tree_4_3_u00_r19_network.node[12].content_store 	decision_yes[12] 	287
scalar tree_4_3_u00_r19_network.node[12].content_store 	decision_no[12] 	25015
scalar tree_4_3_u00_r19_network.node[12].content_store 	decision_ratio[12] 	0.011342976839776
scalar tree_4_3_u00_r19_network.node[13].core_layer 	interests[13] 	12482
scalar tree_4_3_u00_r19_network.node[13].core_layer 	data[13] 	8791
scalar tree_4_3_u00_r19_network.node[13].content_store 	p_hit[13] 	0.29562570100945
scalar tree_4_3_u00_r19_network.node[13].content_store 	hits[13] 	3690
scalar tree_4_3_u00_r19_network.node[13].content_store 	misses[13] 	8792
scalar tree_4_3_u00_r19_network.node[13].content_store 	decision_yes[13] 	78
scalar tree_4_3_u00_r19_network.node[13].content_store 	decision_no[13] 	8713
scalar tree_4_3_u00_r19_network.node[13].content_store 	decision_ratio[13] 	0.0088727107268798
scalar tree_4_3_u00_r19_network.node[14].core_layer 	interests[14] 	12567
scalar tree_4_3_u00_r19_network.node[14].core_layer 	data[14] 	8882
scalar tree_4_3_u00_r19_network.node[14].content_store 	p_hit[14] 	0.29322829633166
scalar tree_4_3_u00_r19_network.node[14].content_store 	hits[14] 	3685
scalar tree_4_3_u00_r19_network.node[14].content_store 	misses[14] 	8882
scalar tree_4_3_u00_r19_network.node[14].content_store 	decision_yes[14] 	115
scalar tree_4_3_u00_r19_network.node[14].content_store 	decision_no[14] 	8767
scalar tree_4_3_u00_r19_network.node[14].content_store 	decision_ratio[14] 	0.012947534339113
scalar tree_4_3_u00_r19_network.node[15].core_layer 	interests[15] 	12244
scalar tree_4_3_u00_r19_network.node[15].core_layer 	data[15] 	8573
scalar tree_4_3_u00_r19_network.node[15].content_store 	p_hit[15] 	0.29973864750082
scalar tree_4_3_u00_r19_network.node[15].content_store 	hits[15] 	3670
scalar tree_4_3_u00_r19_network.node[15].content_store 	misses[15] 	8574
scalar tree_4_3_u00_r19_network.node[15].content_store 	decision_yes[15] 	94
scalar tree_4_3_u00_r19_network.node[15].content_store 	decision_no[15] 	8479
scalar tree_4_3_u00_r19_network.node[15].content_store 	decision_ratio[15] 	0.010964656479645
scalar tree_4_3_u00_r19_network.node[16].core_layer 	interests[16] 	12759
scalar tree_4_3_u00_r19_network.node[16].core_layer 	data[16] 	8833
scalar tree_4_3_u00_r19_network.node[16].content_store 	p_hit[16] 	0.30770436554589
scalar tree_4_3_u00_r19_network.node[16].content_store 	hits[16] 	3926
scalar tree_4_3_u00_r19_network.node[16].content_store 	misses[16] 	8833
scalar tree_4_3_u00_r19_network.node[16].content_store 	decision_yes[16] 	96
scalar tree_4_3_u00_r19_network.node[16].content_store 	decision_no[16] 	8737
scalar tree_4_3_u00_r19_network.node[16].content_store 	decision_ratio[16] 	0.010868334654138
scalar tree_4_3_u00_r19_network.node[17].core_layer 	interests[17] 	12499
scalar tree_4_3_u00_r19_network.node[17].core_layer 	data[17] 	8736
scalar tree_4_3_u00_r19_network.node[17].content_store 	p_hit[17] 	0.30106408512681
scalar tree_4_3_u00_r19_network.node[17].content_store 	hits[17] 	3763
scalar tree_4_3_u00_r19_network.node[17].content_store 	misses[17] 	8736
scalar tree_4_3_u00_r19_network.node[17].content_store 	decision_yes[17] 	109
scalar tree_4_3_u00_r19_network.node[17].content_store 	decision_no[17] 	8627
scalar tree_4_3_u00_r19_network.node[17].content_store 	decision_ratio[17] 	0.012477106227106
scalar tree_4_3_u00_r19_network.node[18].core_layer 	interests[18] 	12495
scalar tree_4_3_u00_r19_network.node[18].core_layer 	data[18] 	8818
scalar tree_4_3_u00_r19_network.node[18].content_store 	p_hit[18] 	0.29427771108443
scalar tree_4_3_u00_r19_network.node[18].content_store 	hits[18] 	3677
scalar tree_4_3_u00_r19_network.node[18].content_store 	misses[18] 	8818
scalar tree_4_3_u00_r19_network.node[18].content_store 	decision_yes[18] 	97
scalar tree_4_3_u00_r19_network.node[18].content_store 	decision_no[18] 	8721
scalar tree_4_3_u00_r19_network.node[18].content_store 	decision_ratio[18] 	0.0110002268088
scalar tree_4_3_u00_r19_network.node[19].core_layer 	interests[19] 	12437
scalar tree_4_3_u00_r19_network.node[19].core_layer 	data[19] 	8704
scalar tree_4_3_u00_r19_network.node[19].content_store 	p_hit[19] 	0.3001527699606
scalar tree_4_3_u00_r19_network.node[19].content_store 	hits[19] 	3733
scalar tree_4_3_u00_r19_network.node[19].content_store 	misses[19] 	8704
scalar tree_4_3_u00_r19_network.node[19].content_store 	decision_yes[19] 	94
scalar tree_4_3_u00_r19_network.node[19].content_store 	decision_no[19] 	8610
scalar tree_4_3_u00_r19_network.node[19].content_store 	decision_ratio[19] 	0.010799632352941
scalar tree_4_3_u00_r19_network.node[20].core_layer 	interests[20] 	12601
scalar tree_4_3_u00_r19_network.node[20].core_layer 	data[20] 	8914
scalar tree_4_3_u00_r19_network.node[20].content_store 	p_hit[20] 	0.29259582572812
scalar tree_4_3_u00_r19_network.node[20].content_store 	hits[20] 	3687
scalar tree_4_3_u00_r19_network.node[20].content_store 	misses[20] 	8914
scalar tree_4_3_u00_r19_network.node[20].content_store 	decision_yes[20] 	117
scalar tree_4_3_u00_r19_network.node[20].content_store 	decision_no[20] 	8797
scalar tree_4_3_u00_r19_network.node[20].content_store 	decision_ratio[20] 	0.01312542068656
scalar tree_4_3_u00_r19_network.node[21].core_layer 	interests[21] 	12486
scalar tree_4_3_u00_r19_network.node[21].core_layer 	data[21] 	8776
scalar tree_4_3_u00_r19_network.node[21].content_store 	p_hit[21] 	0.29713278872337
scalar tree_4_3_u00_r19_network.node[21].content_store 	hits[21] 	3710
scalar tree_4_3_u00_r19_network.node[21].content_store 	misses[21] 	8776
scalar tree_4_3_u00_r19_network.node[21].content_store 	decision_yes[21] 	108
scalar tree_4_3_u00_r19_network.node[21].content_store 	decision_no[21] 	8668
scalar tree_4_3_u00_r19_network.node[21].content_store 	decision_ratio[21] 	0.012306289881495
scalar tree_4_3_u00_r19_network.node[22].core_layer 	interests[22] 	12579
scalar tree_4_3_u00_r19_network.node[22].core_layer 	data[22] 	8772
scalar tree_4_3_u00_r19_network.node[22].content_store 	p_hit[22] 	0.30264726925829
scalar tree_4_3_u00_r19_network.node[22].content_store 	hits[22] 	3807
scalar tree_4_3_u00_r19_network.node[22].content_store 	misses[22] 	8772
scalar tree_4_3_u00_r19_network.node[22].content_store 	decision_yes[22] 	112
scalar tree_4_3_u00_r19_network.node[22].content_store 	decision_no[22] 	8660
scalar tree_4_3_u00_r19_network.node[22].content_store 	decision_ratio[22] 	0.012767897856817
scalar tree_4_3_u00_r19_network.node[23].core_layer 	interests[23] 	12706
scalar tree_4_3_u00_r19_network.node[23].core_layer 	data[23] 	8924
scalar tree_4_3_u00_r19_network.node[23].content_store 	p_hit[23] 	0.29765465134582
scalar tree_4_3_u00_r19_network.node[23].content_store 	hits[23] 	3782
scalar tree_4_3_u00_r19_network.node[23].content_store 	misses[23] 	8924
scalar tree_4_3_u00_r19_network.node[23].content_store 	decision_yes[23] 	119
scalar tree_4_3_u00_r19_network.node[23].content_store 	decision_no[23] 	8805
scalar tree_4_3_u00_r19_network.node[23].content_store 	decision_ratio[23] 	0.013334827431645
scalar tree_4_3_u00_r19_network.node[24].core_layer 	interests[24] 	12505
scalar tree_4_3_u00_r19_network.node[24].core_layer 	data[24] 	8805
scalar tree_4_3_u00_r19_network.node[24].content_store 	p_hit[24] 	0.29588164734106
scalar tree_4_3_u00_r19_network.node[24].content_store 	hits[24] 	3700
scalar tree_4_3_u00_r19_network.node[24].content_store 	misses[24] 	8805
scalar tree_4_3_u00_r19_network.node[24].content_store 	decision_yes[24] 	124
scalar tree_4_3_u00_r19_network.node[24].content_store 	decision_no[24] 	8681
scalar tree_4_3_u00_r19_network.node[24].content_store 	decision_ratio[24] 	0.014082907438955
scalar tree_4_3_u00_r19_network.node[25].core_layer 	interests[25] 	12381
scalar tree_4_3_u00_r19_network.node[25].core_layer 	data[25] 	8743
scalar tree_4_3_u00_r19_network.node[25].content_store 	p_hit[25] 	0.29375656247476
scalar tree_4_3_u00_r19_network.node[25].content_store 	hits[25] 	3637
scalar tree_4_3_u00_r19_network.node[25].content_store 	misses[25] 	8744
scalar tree_4_3_u00_r19_network.node[25].content_store 	decision_yes[25] 	123
scalar tree_4_3_u00_r19_network.node[25].content_store 	decision_no[25] 	8620
scalar tree_4_3_u00_r19_network.node[25].content_store 	decision_ratio[25] 	0.014068397575203
scalar tree_4_3_u00_r19_network.node[26].core_layer 	interests[26] 	12337
scalar tree_4_3_u00_r19_network.node[26].core_layer 	data[26] 	8599
scalar tree_4_3_u00_r19_network.node[26].content_store 	p_hit[26] 	0.30299100267488
scalar tree_4_3_u00_r19_network.node[26].content_store 	hits[26] 	3738
scalar tree_4_3_u00_r19_network.node[26].content_store 	misses[26] 	8599
scalar tree_4_3_u00_r19_network.node[26].content_store 	decision_yes[26] 	103
scalar tree_4_3_u00_r19_network.node[26].content_store 	decision_no[26] 	8496
scalar tree_4_3_u00_r19_network.node[26].content_store 	decision_ratio[26] 	0.011978136992674
scalar tree_4_3_u00_r19_network.node[27].core_layer 	interests[27] 	12618
scalar tree_4_3_u00_r19_network.node[27].core_layer 	data[27] 	8833
scalar tree_4_3_u00_r19_network.node[27].content_store 	p_hit[27] 	0.29996829925503
scalar tree_4_3_u00_r19_network.node[27].content_store 	hits[27] 	3785
scalar tree_4_3_u00_r19_network.node[27].content_store 	misses[27] 	8833
scalar tree_4_3_u00_r19_network.node[27].content_store 	decision_yes[27] 	100
scalar tree_4_3_u00_r19_network.node[27].content_store 	decision_no[27] 	8733
scalar tree_4_3_u00_r19_network.node[27].content_store 	decision_ratio[27] 	0.011321181931394
scalar tree_4_3_u00_r19_network.node[28].core_layer 	interests[28] 	12516
scalar tree_4_3_u00_r19_network.node[28].core_layer 	data[28] 	8745
scalar tree_4_3_u00_r19_network.node[28].content_store 	p_hit[28] 	0.30129434324065
scalar tree_4_3_u00_r19_network.node[28].content_store 	hits[28] 	3771
scalar tree_4_3_u00_r19_network.node[28].content_store 	misses[28] 	8745
scalar tree_4_3_u00_r19_network.node[28].content_store 	decision_yes[28] 	106
scalar tree_4_3_u00_r19_network.node[28].content_store 	decision_no[28] 	8639
scalar tree_4_3_u00_r19_network.node[28].content_store 	decision_ratio[28] 	0.012121212121212
scalar tree_4_3_u00_r19_network.node[29].core_layer 	interests[29] 	12408
scalar tree_4_3_u00_r19_network.node[29].core_layer 	data[29] 	8767
scalar tree_4_3_u00_r19_network.node[29].content_store 	p_hit[29] 	0.29343971631206
scalar tree_4_3_u00_r19_network.node[29].content_store 	hits[29] 	3641
scalar tree_4_3_u00_r19_network.node[29].content_store 	misses[29] 	8767
scalar tree_4_3_u00_r19_network.node[29].content_store 	decision_yes[29] 	124
scalar tree_4_3_u00_r19_network.node[29].content_store 	decision_no[29] 	8643
scalar tree_4_3_u00_r19_network.node[29].content_store 	decision_ratio[29] 	0.014143948899281
scalar tree_4_3_u00_r19_network.node[30].core_layer 	interests[30] 	12365
scalar tree_4_3_u00_r19_network.node[30].core_layer 	data[30] 	8686
scalar tree_4_3_u00_r19_network.node[30].content_store 	p_hit[30] 	0.29753336029114
scalar tree_4_3_u00_r19_network.node[30].content_store 	hits[30] 	3679
scalar tree_4_3_u00_r19_network.node[30].content_store 	misses[30] 	8686
scalar tree_4_3_u00_r19_network.node[30].content_store 	decision_yes[30] 	103
scalar tree_4_3_u00_r19_network.node[30].content_store 	decision_no[30] 	8583
scalar tree_4_3_u00_r19_network.node[30].content_store 	decision_ratio[30] 	0.011858162560442
scalar tree_4_3_u00_r19_network.node[31].core_layer 	interests[31] 	12593
scalar tree_4_3_u00_r19_network.node[31].core_layer 	data[31] 	8836
scalar tree_4_3_u00_r19_network.node[31].content_store 	p_hit[31] 	0.29834034781228
scalar tree_4_3_u00_r19_network.node[31].content_store 	hits[31] 	3757
scalar tree_4_3_u00_r19_network.node[31].content_store 	misses[31] 	8836
scalar tree_4_3_u00_r19_network.node[31].content_store 	decision_yes[31] 	129
scalar tree_4_3_u00_r19_network.node[31].content_store 	decision_no[31] 	8707
scalar tree_4_3_u00_r19_network.node[31].content_store 	decision_ratio[31] 	0.014599366229063
scalar tree_4_3_u00_r19_network.node[32].core_layer 	interests[32] 	12519
scalar tree_4_3_u00_r19_network.node[32].core_layer 	data[32] 	8792
scalar tree_4_3_u00_r19_network.node[32].content_store 	p_hit[32] 	0.29770748462337
scalar tree_4_3_u00_r19_network.node[32].content_store 	hits[32] 	3727
scalar tree_4_3_u00_r19_network.node[32].content_store 	misses[32] 	8792
scalar tree_4_3_u00_r19_network.node[32].content_store 	decision_yes[32] 	97
scalar tree_4_3_u00_r19_network.node[32].content_store 	decision_no[32] 	8695
scalar tree_4_3_u00_r19_network.node[32].content_store 	decision_ratio[32] 	0.011032757051865
scalar tree_4_3_u00_r19_network.node[33].core_layer 	interests[33] 	12662
scalar tree_4_3_u00_r19_network.node[33].core_layer 	data[33] 	8884
scalar tree_4_3_u00_r19_network.node[33].content_store 	p_hit[33] 	0.29829410835571
scalar tree_4_3_u00_r19_network.node[33].content_store 	hits[33] 	3777
scalar tree_4_3_u00_r19_network.node[33].content_store 	misses[33] 	8885
scalar tree_4_3_u00_r19_network.node[33].content_store 	decision_yes[33] 	95
scalar tree_4_3_u00_r19_network.node[33].content_store 	decision_no[33] 	8789
scalar tree_4_3_u00_r19_network.node[33].content_store 	decision_ratio[33] 	0.010693381359748
scalar tree_4_3_u00_r19_network.node[34].core_layer 	interests[34] 	12657
scalar tree_4_3_u00_r19_network.node[34].core_layer 	data[34] 	8818
scalar tree_4_3_u00_r19_network.node[34].content_store 	p_hit[34] 	0.30331042111085
scalar tree_4_3_u00_r19_network.node[34].content_store 	hits[34] 	3839
scalar tree_4_3_u00_r19_network.node[34].content_store 	misses[34] 	8818
scalar tree_4_3_u00_r19_network.node[34].content_store 	decision_yes[34] 	93
scalar tree_4_3_u00_r19_network.node[34].content_store 	decision_no[34] 	8725
scalar tree_4_3_u00_r19_network.node[34].content_store 	decision_ratio[34] 	0.010546609208437
scalar tree_4_3_u00_r19_network.node[35].core_layer 	interests[35] 	12571
scalar tree_4_3_u00_r19_network.node[35].core_layer 	data[35] 	8889
scalar tree_4_3_u00_r19_network.node[35].content_store 	p_hit[35] 	0.29289634873916
scalar tree_4_3_u00_r19_network.node[35].content_store 	hits[35] 	3682
scalar tree_4_3_u00_r19_network.node[35].content_store 	misses[35] 	8889
scalar tree_4_3_u00_r19_network.node[35].content_store 	decision_yes[35] 	104
scalar tree_4_3_u00_r19_network.node[35].content_store 	decision_no[35] 	8785
scalar tree_4_3_u00_r19_network.node[35].content_store 	decision_ratio[35] 	0.011699853751828
scalar tree_4_3_u00_r19_network.node[36].core_layer 	interests[36] 	12487
scalar tree_4_3_u00_r19_network.node[36].core_layer 	data[36] 	8764
scalar tree_4_3_u00_r19_network.node[36].content_store 	p_hit[36] 	0.29815007607912
scalar tree_4_3_u00_r19_network.node[36].content_store 	hits[36] 	3723
scalar tree_4_3_u00_r19_network.node[36].content_store 	misses[36] 	8764
scalar tree_4_3_u00_r19_network.node[36].content_store 	decision_yes[36] 	117
scalar tree_4_3_u00_r19_network.node[36].content_store 	decision_no[36] 	8647
scalar tree_4_3_u00_r19_network.node[36].content_store 	decision_ratio[36] 	0.01335006846189
scalar tree_4_3_u00_r19_network.node[37].core_layer 	interests[37] 	12543
scalar tree_4_3_u00_r19_network.node[37].core_layer 	data[37] 	8742
scalar tree_4_3_u00_r19_network.node[37].content_store 	p_hit[37] 	0.30303755082516
scalar tree_4_3_u00_r19_network.node[37].content_store 	hits[37] 	3801
scalar tree_4_3_u00_r19_network.node[37].content_store 	misses[37] 	8742
scalar tree_4_3_u00_r19_network.node[37].content_store 	decision_yes[37] 	108
scalar tree_4_3_u00_r19_network.node[37].content_store 	decision_no[37] 	8634
scalar tree_4_3_u00_r19_network.node[37].content_store 	decision_ratio[37] 	0.012354152367879
scalar tree_4_3_u00_r19_network.node[38].core_layer 	interests[38] 	12311
scalar tree_4_3_u00_r19_network.node[38].core_layer 	data[38] 	8830
scalar tree_4_3_u00_r19_network.node[38].content_store 	p_hit[38] 	0.282755259524
scalar tree_4_3_u00_r19_network.node[38].content_store 	hits[38] 	3481
scalar tree_4_3_u00_r19_network.node[38].content_store 	misses[38] 	8830
scalar tree_4_3_u00_r19_network.node[38].content_store 	decision_yes[38] 	105
scalar tree_4_3_u00_r19_network.node[38].content_store 	decision_no[38] 	8725
scalar tree_4_3_u00_r19_network.node[38].content_store 	decision_ratio[38] 	0.011891279728199
scalar tree_4_3_u00_r19_network.node[39].core_layer 	interests[39] 	12312
scalar tree_4_3_u00_r19_network.node[39].core_layer 	data[39] 	8575
scalar tree_4_3_u00_r19_network.node[39].content_store 	p_hit[39] 	0.30344379467186
scalar tree_4_3_u00_r19_network.node[39].content_store 	hits[39] 	3736
scalar tree_4_3_u00_r19_network.node[39].content_store 	misses[39] 	8576
scalar tree_4_3_u00_r19_network.node[39].content_store 	decision_yes[39] 	81
scalar tree_4_3_u00_r19_network.node[39].content_store 	decision_no[39] 	8494
scalar tree_4_3_u00_r19_network.node[39].content_store 	decision_ratio[39] 	0.0094460641399417
scalar tree_4_3_u00_r19_network.client[13] 	hdistance[13] 	2.7076653306613
scalar tree_4_3_u00_r19_network.client[13] 	downloads[13] 	11976
scalar tree_4_3_u00_r19_network.client[13] 	avg_time[13] 	0.004201622454
scalar tree_4_3_u00_r19_network.client[14] 	hdistance[14] 	2.6867747510493
scalar tree_4_3_u00_r19_network.client[14] 	downloads[14] 	12151
scalar tree_4_3_u00_r19_network.client[14] 	avg_time[14] 	0.004167555194
scalar tree_4_3_u00_r19_network.client[15] 	hdistance[15] 	2.6669495841114
scalar tree_4_3_u00_r19_network.client[15] 	downloads[15] 	11782
scalar tree_4_3_u00_r19_network.client[15] 	avg_time[15] 	0.004136664995
scalar tree_4_3_u00_r19_network.client[16] 	hdistance[16] 	2.6639310627821
scalar tree_4_3_u00_r19_network.client[16] 	downloads[16] 	12185
scalar tree_4_3_u00_r19_network.client[16] 	avg_time[16] 	0.004135573461
scalar tree_4_3_u00_r19_network.client[17] 	hdistance[17] 	2.6687739144901
scalar tree_4_3_u00_r19_network.client[17] 	downloads[17] 	12022
scalar tree_4_3_u00_r19_network.client[17] 	avg_time[17] 	0.004143068039
scalar tree_4_3_u00_r19_network.client[18] 	hdistance[18] 	2.7083021690352
scalar tree_4_3_u00_r19_network.client[18] 	downloads[18] 	12033
scalar tree_4_3_u00_r19_network.client[18] 	avg_time[18] 	0.004198451249
scalar tree_4_3_u00_r19_network.client[19] 	hdistance[19] 	2.6867247737177
scalar tree_4_3_u00_r19_network.client[19] 	downloads[19] 	11932
scalar tree_4_3_u00_r19_network.client[19] 	avg_time[19] 	0.00416761349
scalar tree_4_3_u00_r19_network.client[20] 	hdistance[20] 	2.6946356023547
scalar tree_4_3_u00_r19_network.client[20] 	downloads[20] 	12061
scalar tree_4_3_u00_r19_network.client[20] 	avg_time[20] 	0.004188870212
scalar tree_4_3_u00_r19_network.client[21] 	hdistance[21] 	2.6879639669697
scalar tree_4_3_u00_r19_network.client[21] 	downloads[21] 	11989
scalar tree_4_3_u00_r19_network.client[21] 	avg_time[21] 	0.004176492138
scalar tree_4_3_u00_r19_network.client[22] 	hdistance[22] 	2.6776447105788
scalar tree_4_3_u00_r19_network.client[22] 	downloads[22] 	12024
scalar tree_4_3_u00_r19_network.client[22] 	avg_time[22] 	0.004154687603
scalar tree_4_3_u00_r19_network.client[23] 	hdistance[23] 	2.6683848797251
scalar tree_4_3_u00_r19_network.client[23] 	downloads[23] 	12222
scalar tree_4_3_u00_r19_network.client[23] 	avg_time[23] 	0.00415218157
scalar tree_4_3_u00_r19_network.client[24] 	hdistance[24] 	2.6838774150566
scalar tree_4_3_u00_r19_network.client[24] 	downloads[24] 	12008
scalar tree_4_3_u00_r19_network.client[24] 	avg_time[24] 	0.004173214881
scalar tree_4_3_u00_r19_network.client[25] 	hdistance[25] 	2.6832115562274
scalar tree_4_3_u00_r19_network.client[25] 	downloads[25] 	11907
scalar tree_4_3_u00_r19_network.client[25] 	avg_time[25] 	0.004172164663
scalar tree_4_3_u00_r19_network.client[26] 	hdistance[26] 	2.6659366576819
scalar tree_4_3_u00_r19_network.client[26] 	downloads[26] 	11872
scalar tree_4_3_u00_r19_network.client[26] 	avg_time[26] 	0.004137294882
scalar tree_4_3_u00_r19_network.client[27] 	hdistance[27] 	2.6822684497276
scalar tree_4_3_u00_r19_network.client[27] 	downloads[27] 	12114
scalar tree_4_3_u00_r19_network.client[27] 	avg_time[27] 	0.004161132855
scalar tree_4_3_u00_r19_network.client[28] 	hdistance[28] 	2.681477159053
scalar tree_4_3_u00_r19_network.client[28] 	downloads[28] 	11996
scalar tree_4_3_u00_r19_network.client[28] 	avg_time[28] 	0.004162551181
scalar tree_4_3_u00_r19_network.client[29] 	hdistance[29] 	2.6944654404972
scalar tree_4_3_u00_r19_network.client[29] 	downloads[29] 	11907
scalar tree_4_3_u00_r19_network.client[29] 	avg_time[29] 	0.004185098246
scalar tree_4_3_u00_r19_network.client[30] 	hdistance[30] 	2.6671146577068
scalar tree_4_3_u00_r19_network.client[30] 	downloads[30] 	11905
scalar tree_4_3_u00_r19_network.client[30] 	avg_time[30] 	0.004145650119
scalar tree_4_3_u00_r19_network.client[31] 	hdistance[31] 	2.6808019140335
scalar tree_4_3_u00_r19_network.client[31] 	downloads[31] 	12121
scalar tree_4_3_u00_r19_network.client[31] 	avg_time[31] 	0.004167474879
scalar tree_4_3_u00_r19_network.client[32] 	hdistance[32] 	2.6957173804366
scalar tree_4_3_u00_r19_network.client[32] 	downloads[32] 	12002
scalar tree_4_3_u00_r19_network.client[32] 	avg_time[32] 	0.004185799391
scalar tree_4_3_u00_r19_network.client[33] 	hdistance[33] 	2.7004118616145
scalar tree_4_3_u00_r19_network.client[33] 	downloads[33] 	12140
scalar tree_4_3_u00_r19_network.client[33] 	avg_time[33] 	0.00419246277
scalar tree_4_3_u00_r19_network.client[34] 	hdistance[34] 	2.6726538683365
scalar tree_4_3_u00_r19_network.client[34] 	downloads[34] 	12137
scalar tree_4_3_u00_r19_network.client[34] 	avg_time[34] 	0.004145337674
scalar tree_4_3_u00_r19_network.client[35] 	hdistance[35] 	2.6999585921325
scalar tree_4_3_u00_r19_network.client[35] 	downloads[35] 	12075
scalar tree_4_3_u00_r19_network.client[35] 	avg_time[35] 	0.004196435887
scalar tree_4_3_u00_r19_network.client[36] 	hdistance[36] 	2.6982110015048
scalar tree_4_3_u00_r19_network.client[36] 	downloads[36] 	11962
scalar tree_4_3_u00_r19_network.client[36] 	avg_time[36] 	0.004191269349
scalar tree_4_3_u00_r19_network.client[37] 	hdistance[37] 	2.6619449966866
scalar tree_4_3_u00_r19_network.client[37] 	downloads[37] 	12072
scalar tree_4_3_u00_r19_network.client[37] 	avg_time[37] 	0.004132866438
scalar tree_4_3_u00_r19_network.client[38] 	hdistance[38] 	2.7407000338181
scalar tree_4_3_u00_r19_network.client[38] 	downloads[38] 	11828
scalar tree_4_3_u00_r19_network.client[38] 	avg_time[38] 	0.004261998551
scalar tree_4_3_u00_r19_network.client[39] 	hdistance[39] 	2.6779890156316
scalar tree_4_3_u00_r19_network.client[39] 	downloads[39] 	11835
scalar tree_4_3_u00_r19_network.client[39] 	avg_time[39] 	0.004150229416
