version 2
run General-3-20160831-18:13:05-8710
attr a 0.9
attr cd ffc
attr configname General
attr cr lru
attr datetime 20160831-18:13:05
attr experiment General
attr fsize 1
attr inifile hw5115/scenario_Y/omnetp.ini
attr iterationvars "$name=tree_4_3, $un=00, $rep=2, $cd=ffc, $cr=lru, $fsize=1, $a=0.9, $sl=nrr, $ttl=1000, $variance=0.05"
attr iterationvars2 "$name=tree_4_3, $un=00, $rep=2, $cd=ffc, $cr=lru, $fsize=1, $a=0.9, $sl=nrr, $ttl=1000, $variance=0.05, $repetition=0"
attr measurement "$name=tree_4_3, $un=00, $rep=2, $cd=ffc, $cr=lru, $fsize=1, $a=0.9, $sl=nrr, $ttl=1000, $variance=0.05"
attr name tree_4_3
attr network networks.${name}_u${un}_r${rep}_network
attr processid 8710
attr rep 2
attr repetition 0
attr replication #0
attr resultdir results
attr runnumber 3
attr seedset 2
attr sl nrr
attr ttl 1000
attr un 00
attr variance 0.05

scalar . 	a 	0.9
scalar . 	fsize 	1
scalar . 	rep 	2
scalar . 	ttl 	1000
scalar . 	un 	00
scalar . 	variance 	0.05
scalar tree_4_3_u00_r2_network.content_distribution 	repo-0 	0
scalar tree_4_3_u00_r2_network.content_distribution 	client-0 	13
scalar tree_4_3_u00_r2_network.content_distribution 	client-1 	14
scalar tree_4_3_u00_r2_network.content_distribution 	client-2 	15
scalar tree_4_3_u00_r2_network.content_distribution 	client-3 	16
scalar tree_4_3_u00_r2_network.content_distribution 	client-4 	17
scalar tree_4_3_u00_r2_network.content_distribution 	client-5 	18
scalar tree_4_3_u00_r2_network.content_distribution 	client-6 	19
scalar tree_4_3_u00_r2_network.content_distribution 	client-7 	20
scalar tree_4_3_u00_r2_network.content_distribution 	client-8 	21
scalar tree_4_3_u00_r2_network.content_distribution 	client-9 	22
scalar tree_4_3_u00_r2_network.content_distribution 	client-10 	23
scalar tree_4_3_u00_r2_network.content_distribution 	client-11 	24
scalar tree_4_3_u00_r2_network.content_distribution 	client-12 	25
scalar tree_4_3_u00_r2_network.content_distribution 	client-13 	26
scalar tree_4_3_u00_r2_network.content_distribution 	client-14 	27
scalar tree_4_3_u00_r2_network.content_distribution 	client-15 	28
scalar tree_4_3_u00_r2_network.content_distribution 	client-16 	29
scalar tree_4_3_u00_r2_network.content_distribution 	client-17 	30
scalar tree_4_3_u00_r2_network.content_distribution 	client-18 	31
scalar tree_4_3_u00_r2_network.content_distribution 	client-19 	32
scalar tree_4_3_u00_r2_network.content_distribution 	client-20 	33
scalar tree_4_3_u00_r2_network.content_distribution 	client-21 	34
scalar tree_4_3_u00_r2_network.content_distribution 	client-22 	35
scalar tree_4_3_u00_r2_network.content_distribution 	client-23 	36
scalar tree_4_3_u00_r2_network.content_distribution 	client-24 	37
scalar tree_4_3_u00_r2_network.content_distribution 	client-25 	38
scalar tree_4_3_u00_r2_network.content_distribution 	client-26 	39
scalar tree_4_3_u00_r2_network.content_distribution 	repo-0_card 	100000
scalar tree_4_3_u00_r2_network.content_distribution 	repo-0_price 	0
scalar tree_4_3_u00_r2_network.statistics 	stabilization_time 	1005
scalar tree_4_3_u00_r2_network.statistics 	p_hit 	0.22160056500679
scalar tree_4_3_u00_r2_network.statistics 	interests 	24972.2
scalar tree_4_3_u00_r2_network.statistics 	data 	16880.675
scalar tree_4_3_u00_r2_network.statistics 	hdistance 	2.6869286987691
scalar tree_4_3_u00_r2_network.statistics 	avg_time 	0.004172606237
scalar tree_4_3_u00_r2_network.statistics 	downloads 	323650
scalar tree_4_3_u00_r2_network.statistics 	total_cost 	0
scalar tree_4_3_u00_r2_network.statistics 	total_replicas 	100000
scalar tree_4_3_u00_r2_network.statistics 	inner_hit 	0.39940985632628
scalar tree_4_3_u00_r2_network.node[0].core_layer 	interests[0] 	197903
scalar tree_4_3_u00_r2_network.node[0].core_layer 	repo_load[0] 	194381
scalar tree_4_3_u00_r2_network.node[0].core_layer 	data[0] 	0
scalar tree_4_3_u00_r2_network.node[0].core_layer 	repo_int[0] 	194381
scalar tree_4_3_u00_r2_network.node[0].content_store 	p_hit[0] 	0.017796597322931
scalar tree_4_3_u00_r2_network.node[0].content_store 	hits[0] 	3522
scalar tree_4_3_u00_r2_network.node[0].content_store 	misses[0] 	194381
scalar tree_4_3_u00_r2_network.node[0].content_store 	decision_yes[0] 	969
scalar tree_4_3_u00_r2_network.node[0].content_store 	decision_no[0] 	193412
scalar tree_4_3_u00_r2_network.node[0].content_store 	decision_ratio[0] 	0.0049850551237004
scalar tree_4_3_u00_r2_network.node[1].core_layer 	interests[1] 	71890
scalar tree_4_3_u00_r2_network.node[1].core_layer 	data[1] 	69929
scalar tree_4_3_u00_r2_network.node[1].content_store 	p_hit[1] 	0.027277785505634
scalar tree_4_3_u00_r2_network.node[1].content_store 	hits[1] 	1961
scalar tree_4_3_u00_r2_network.node[1].content_store 	misses[1] 	69929
scalar tree_4_3_u00_r2_network.node[1].content_store 	decision_yes[1] 	481
scalar tree_4_3_u00_r2_network.node[1].content_store 	decision_no[1] 	69448
scalar tree_4_3_u00_r2_network.node[1].content_store 	decision_ratio[1] 	0.0068784052396002
scalar tree_4_3_u00_r2_network.node[2].core_layer 	interests[2] 	71704
scalar tree_4_3_u00_r2_network.node[2].core_layer 	data[2] 	69823
scalar tree_4_3_u00_r2_network.node[2].content_store 	p_hit[2] 	0.026218899921901
scalar tree_4_3_u00_r2_network.node[2].content_store 	hits[2] 	1880
scalar tree_4_3_u00_r2_network.node[2].content_store 	misses[2] 	69824
scalar tree_4_3_u00_r2_network.node[2].content_store 	decision_yes[2] 	519
scalar tree_4_3_u00_r2_network.node[2].content_store 	decision_no[2] 	69304
scalar tree_4_3_u00_r2_network.node[2].content_store 	decision_ratio[2] 	0.0074330807899976
scalar tree_4_3_u00_r2_network.node[3].core_layer 	interests[3] 	71862
scalar tree_4_3_u00_r2_network.node[3].core_layer 	data[3] 	69990
scalar tree_4_3_u00_r2_network.node[3].content_store 	p_hit[3] 	0.026049929030642
scalar tree_4_3_u00_r2_network.node[3].content_store 	hits[3] 	1872
scalar tree_4_3_u00_r2_network.node[3].content_store 	misses[3] 	69990
scalar tree_4_3_u00_r2_network.node[3].content_store 	decision_yes[3] 	463
scalar tree_4_3_u00_r2_network.node[3].content_store 	decision_no[3] 	69527
scalar tree_4_3_u00_r2_network.node[3].content_store 	decision_ratio[3] 	0.0066152307472496
scalar tree_4_3_u00_r2_network.node[4].core_layer 	interests[4] 	27706
scalar tree_4_3_u00_r2_network.node[4].core_layer 	data[4] 	25555
scalar tree_4_3_u00_r2_network.node[4].content_store 	p_hit[4] 	0.077528333213022
scalar tree_4_3_u00_r2_network.node[4].content_store 	hits[4] 	2148
scalar tree_4_3_u00_r2_network.node[4].content_store 	misses[4] 	25558
scalar tree_4_3_u00_r2_network.node[4].content_store 	decision_yes[4] 	319
scalar tree_4_3_u00_r2_network.node[4].content_store 	decision_no[4] 	25236
scalar tree_4_3_u00_r2_network.node[4].content_store 	decision_ratio[4] 	0.01248288006261
scalar tree_4_3_u00_r2_network.node[5].core_layer 	interests[5] 	27532
scalar tree_4_3_u00_r2_network.node[5].core_layer 	data[5] 	25413
scalar tree_4_3_u00_r2_network.node[5].content_store 	p_hit[5] 	0.076964986197879
scalar tree_4_3_u00_r2_network.node[5].content_store 	hits[5] 	2119
scalar tree_4_3_u00_r2_network.node[5].content_store 	misses[5] 	25413
scalar tree_4_3_u00_r2_network.node[5].content_store 	decision_yes[5] 	266
scalar tree_4_3_u00_r2_network.node[5].content_store 	decision_no[5] 	25147
scalar tree_4_3_u00_r2_network.node[5].content_store 	decision_ratio[5] 	0.01046708377602
scalar tree_4_3_u00_r2_network.node[6].core_layer 	interests[6] 	27738
scalar tree_4_3_u00_r2_network.node[6].core_layer 	data[6] 	25489
scalar tree_4_3_u00_r2_network.node[6].content_store 	p_hit[6] 	0.081080106712813
scalar tree_4_3_u00_r2_network.node[6].content_store 	hits[6] 	2249
scalar tree_4_3_u00_r2_network.node[6].content_store 	misses[6] 	25489
scalar tree_4_3_u00_r2_network.node[6].content_store 	decision_yes[6] 	285
scalar tree_4_3_u00_r2_network.node[6].content_store 	decision_no[6] 	25204
scalar tree_4_3_u00_r2_network.node[6].content_store 	decision_ratio[6] 	0.011181293891483
scalar tree_4_3_u00_r2_network.node[7].core_layer 	interests[7] 	27658
scalar tree_4_3_u00_r2_network.node[7].core_layer 	data[7] 	25622
scalar tree_4_3_u00_r2_network.node[7].content_store 	p_hit[7] 	0.073541109263143
scalar tree_4_3_u00_r2_network.node[7].content_store 	hits[7] 	2034
scalar tree_4_3_u00_r2_network.node[7].content_store 	misses[7] 	25624
scalar tree_4_3_u00_r2_network.node[7].content_store 	decision_yes[7] 	296
scalar tree_4_3_u00_r2_network.node[7].content_store 	decision_no[7] 	25326
scalar tree_4_3_u00_r2_network.node[7].content_store 	decision_ratio[7] 	0.01155257200843
scalar tree_4_3_u00_r2_network.node[8].core_layer 	interests[8] 	27109
scalar tree_4_3_u00_r2_network.node[8].core_layer 	data[8] 	24959
scalar tree_4_3_u00_r2_network.node[8].content_store 	p_hit[8] 	0.07930945442473
scalar tree_4_3_u00_r2_network.node[8].content_store 	hits[8] 	2150
scalar tree_4_3_u00_r2_network.node[8].content_store 	misses[8] 	24959
scalar tree_4_3_u00_r2_network.node[8].content_store 	decision_yes[8] 	299
scalar tree_4_3_u00_r2_network.node[8].content_store 	decision_no[8] 	24660
scalar tree_4_3_u00_r2_network.node[8].content_store 	decision_ratio[8] 	0.011979646620458
scalar tree_4_3_u00_r2_network.node[9].core_layer 	interests[9] 	27581
scalar tree_4_3_u00_r2_network.node[9].core_layer 	data[9] 	25509
scalar tree_4_3_u00_r2_network.node[9].content_store 	p_hit[9] 	0.075087922845437
scalar tree_4_3_u00_r2_network.node[9].content_store 	hits[9] 	2071
scalar tree_4_3_u00_r2_network.node[9].content_store 	misses[9] 	25510
scalar tree_4_3_u00_r2_network.node[9].content_store 	decision_yes[9] 	300
scalar tree_4_3_u00_r2_network.node[9].content_store 	decision_no[9] 	25209
scalar tree_4_3_u00_r2_network.node[9].content_store 	decision_ratio[9] 	0.011760555098201
scalar tree_4_3_u00_r2_network.node[10].core_layer 	interests[10] 	27633
scalar tree_4_3_u00_r2_network.node[10].core_layer 	data[10] 	25510
scalar tree_4_3_u00_r2_network.node[10].content_store 	p_hit[10] 	0.076792241160931
scalar tree_4_3_u00_r2_network.node[10].content_store 	hits[10] 	2122
scalar tree_4_3_u00_r2_network.node[10].content_store 	misses[10] 	25511
scalar tree_4_3_u00_r2_network.node[10].content_store 	decision_yes[10] 	299
scalar tree_4_3_u00_r2_network.node[10].content_store 	decision_no[10] 	25211
scalar tree_4_3_u00_r2_network.node[10].content_store 	decision_ratio[10] 	0.01172089376715
scalar tree_4_3_u00_r2_network.node[11].core_layer 	interests[11] 	27688
scalar tree_4_3_u00_r2_network.node[11].core_layer 	data[11] 	25533
scalar tree_4_3_u00_r2_network.node[11].content_store 	p_hit[11] 	0.07779543484542
scalar tree_4_3_u00_r2_network.node[11].content_store 	hits[11] 	2154
scalar tree_4_3_u00_r2_network.node[11].content_store 	misses[11] 	25534
scalar tree_4_3_u00_r2_network.node[11].content_store 	decision_yes[11] 	296
scalar tree_4_3_u00_r2_network.node[11].content_store 	decision_no[11] 	25237
scalar tree_4_3_u00_r2_network.node[11].content_store 	decision_ratio[11] 	0.011592840637606
scalar tree_4_3_u00_r2_network.node[12].core_layer 	interests[12] 	27641
scalar tree_4_3_u00_r2_network.node[12].core_layer 	data[12] 	25451
scalar tree_4_3_u00_r2_network.node[12].content_store 	p_hit[12] 	0.079230129155964
scalar tree_4_3_u00_r2_network.node[12].content_store 	hits[12] 	2190
scalar tree_4_3_u00_r2_network.node[12].content_store 	misses[12] 	25451
scalar tree_4_3_u00_r2_network.node[12].content_store 	decision_yes[12] 	309
scalar tree_4_3_u00_r2_network.node[12].content_store 	decision_no[12] 	25142
scalar tree_4_3_u00_r2_network.node[12].content_store 	decision_ratio[12] 	0.012140976778908
scalar tree_4_3_u00_r2_network.node[13].core_layer 	interests[13] 	12545
scalar tree_4_3_u00_r2_network.node[13].core_layer 	data[13] 	8872
scalar tree_4_3_u00_r2_network.node[13].content_store 	p_hit[13] 	0.29278597050618
scalar tree_4_3_u00_r2_network.node[13].content_store 	hits[13] 	3673
scalar tree_4_3_u00_r2_network.node[13].content_store 	misses[13] 	8872
scalar tree_4_3_u00_r2_network.node[13].content_store 	decision_yes[13] 	116
scalar tree_4_3_u00_r2_network.node[13].content_store 	decision_no[13] 	8756
scalar tree_4_3_u00_r2_network.node[13].content_store 	decision_ratio[13] 	0.01307484220018
scalar tree_4_3_u00_r2_network.node[14].core_layer 	interests[14] 	12540
scalar tree_4_3_u00_r2_network.node[14].core_layer 	data[14] 	8856
scalar tree_4_3_u00_r2_network.node[14].content_store 	p_hit[14] 	0.29370015948963
scalar tree_4_3_u00_r2_network.node[14].content_store 	hits[14] 	3683
scalar tree_4_3_u00_r2_network.node[14].content_store 	misses[14] 	8857
scalar tree_4_3_u00_r2_network.node[14].content_store 	decision_yes[14] 	129
scalar tree_4_3_u00_r2_network.node[14].content_store 	decision_no[14] 	8727
scalar tree_4_3_u00_r2_network.node[14].content_store 	decision_ratio[14] 	0.014566395663957
scalar tree_4_3_u00_r2_network.node[15].core_layer 	interests[15] 	12485
scalar tree_4_3_u00_r2_network.node[15].core_layer 	data[15] 	8660
scalar tree_4_3_u00_r2_network.node[15].content_store 	p_hit[15] 	0.3063676411694
scalar tree_4_3_u00_r2_network.node[15].content_store 	hits[15] 	3825
scalar tree_4_3_u00_r2_network.node[15].content_store 	misses[15] 	8660
scalar tree_4_3_u00_r2_network.node[15].content_store 	decision_yes[15] 	99
scalar tree_4_3_u00_r2_network.node[15].content_store 	decision_no[15] 	8561
scalar tree_4_3_u00_r2_network.node[15].content_store 	decision_ratio[15] 	0.011431870669746
scalar tree_4_3_u00_r2_network.node[16].core_layer 	interests[16] 	12433
scalar tree_4_3_u00_r2_network.node[16].core_layer 	data[16] 	8723
scalar tree_4_3_u00_r2_network.node[16].content_store 	p_hit[16] 	0.298399420896
scalar tree_4_3_u00_r2_network.node[16].content_store 	hits[16] 	3710
scalar tree_4_3_u00_r2_network.node[16].content_store 	misses[16] 	8723
scalar tree_4_3_u00_r2_network.node[16].content_store 	decision_yes[16] 	103
scalar tree_4_3_u00_r2_network.node[16].content_store 	decision_no[16] 	8620
scalar tree_4_3_u00_r2_network.node[16].content_store 	decision_ratio[16] 	0.011807864266881
scalar tree_4_3_u00_r2_network.node[17].core_layer 	interests[17] 	12491
scalar tree_4_3_u00_r2_network.node[17].core_layer 	data[17] 	8885
scalar tree_4_3_u00_r2_network.node[17].content_store 	p_hit[17] 	0.28852773997278
scalar tree_4_3_u00_r2_network.node[17].content_store 	hits[17] 	3604
scalar tree_4_3_u00_r2_network.node[17].content_store 	misses[17] 	8887
scalar tree_4_3_u00_r2_network.node[17].content_store 	decision_yes[17] 	106
scalar tree_4_3_u00_r2_network.node[17].content_store 	decision_no[17] 	8779
scalar tree_4_3_u00_r2_network.node[17].content_store 	decision_ratio[17] 	0.011930219471019
scalar tree_4_3_u00_r2_network.node[18].core_layer 	interests[18] 	12396
scalar tree_4_3_u00_r2_network.node[18].core_layer 	data[18] 	8694
scalar tree_4_3_u00_r2_network.node[18].content_store 	p_hit[18] 	0.29864472410455
scalar tree_4_3_u00_r2_network.node[18].content_store 	hits[18] 	3702
scalar tree_4_3_u00_r2_network.node[18].content_store 	misses[18] 	8694
scalar tree_4_3_u00_r2_network.node[18].content_store 	decision_yes[18] 	121
scalar tree_4_3_u00_r2_network.node[18].content_store 	decision_no[18] 	8573
scalar tree_4_3_u00_r2_network.node[18].content_store 	decision_ratio[18] 	0.013917644352427
scalar tree_4_3_u00_r2_network.node[19].core_layer 	interests[19] 	12664
scalar tree_4_3_u00_r2_network.node[19].core_layer 	data[19] 	8867
scalar tree_4_3_u00_r2_network.node[19].content_store 	p_hit[19] 	0.29982627921668
scalar tree_4_3_u00_r2_network.node[19].content_store 	hits[19] 	3797
scalar tree_4_3_u00_r2_network.node[19].content_store 	misses[19] 	8867
scalar tree_4_3_u00_r2_network.node[19].content_store 	decision_yes[19] 	109
scalar tree_4_3_u00_r2_network.node[19].content_store 	decision_no[19] 	8758
scalar tree_4_3_u00_r2_network.node[19].content_store 	decision_ratio[19] 	0.012292770948461
scalar tree_4_3_u00_r2_network.node[20].core_layer 	interests[20] 	12594
scalar tree_4_3_u00_r2_network.node[20].core_layer 	data[20] 	8789
scalar tree_4_3_u00_r2_network.node[20].content_store 	p_hit[20] 	0.30212799745911
scalar tree_4_3_u00_r2_network.node[20].content_store 	hits[20] 	3805
scalar tree_4_3_u00_r2_network.node[20].content_store 	misses[20] 	8789
scalar tree_4_3_u00_r2_network.node[20].content_store 	decision_yes[20] 	99
scalar tree_4_3_u00_r2_network.node[20].content_store 	decision_no[20] 	8690
scalar tree_4_3_u00_r2_network.node[20].content_store 	decision_ratio[20] 	0.011264080100125
scalar tree_4_3_u00_r2_network.node[21].core_layer 	interests[21] 	12385
scalar tree_4_3_u00_r2_network.node[21].core_layer 	data[21] 	8681
scalar tree_4_3_u00_r2_network.node[21].content_store 	p_hit[21] 	0.29915220024223
scalar tree_4_3_u00_r2_network.node[21].content_store 	hits[21] 	3705
scalar tree_4_3_u00_r2_network.node[21].content_store 	misses[21] 	8680
scalar tree_4_3_u00_r2_network.node[21].content_store 	decision_yes[21] 	98
scalar tree_4_3_u00_r2_network.node[21].content_store 	decision_no[21] 	8583
scalar tree_4_3_u00_r2_network.node[21].content_store 	decision_ratio[21] 	0.011289022002073
scalar tree_4_3_u00_r2_network.node[22].core_layer 	interests[22] 	12420
scalar tree_4_3_u00_r2_network.node[22].core_layer 	data[22] 	8672
scalar tree_4_3_u00_r2_network.node[22].content_store 	p_hit[22] 	0.30169082125604
scalar tree_4_3_u00_r2_network.node[22].content_store 	hits[22] 	3747
scalar tree_4_3_u00_r2_network.node[22].content_store 	misses[22] 	8673
scalar tree_4_3_u00_r2_network.node[22].content_store 	decision_yes[22] 	97
scalar tree_4_3_u00_r2_network.node[22].content_store 	decision_no[22] 	8575
scalar tree_4_3_u00_r2_network.node[22].content_store 	decision_ratio[22] 	0.011185424354244
scalar tree_4_3_u00_r2_network.node[23].core_layer 	interests[23] 	12639
scalar tree_4_3_u00_r2_network.node[23].core_layer 	data[23] 	8909
scalar tree_4_3_u00_r2_network.node[23].content_store 	p_hit[23] 	0.29511828467442
scalar tree_4_3_u00_r2_network.node[23].content_store 	hits[23] 	3730
scalar tree_4_3_u00_r2_network.node[23].content_store 	misses[23] 	8909
scalar tree_4_3_u00_r2_network.node[23].content_store 	decision_yes[23] 	108
scalar tree_4_3_u00_r2_network.node[23].content_store 	decision_no[23] 	8801
scalar tree_4_3_u00_r2_network.node[23].content_store 	decision_ratio[23] 	0.012122572679313
scalar tree_4_3_u00_r2_network.node[24].core_layer 	interests[24] 	12525
scalar tree_4_3_u00_r2_network.node[24].core_layer 	data[24] 	8766
scalar tree_4_3_u00_r2_network.node[24].content_store 	p_hit[24] 	0.30003992015968
scalar tree_4_3_u00_r2_network.node[24].content_store 	hits[24] 	3758
scalar tree_4_3_u00_r2_network.node[24].content_store 	misses[24] 	8767
scalar tree_4_3_u00_r2_network.node[24].content_store 	decision_yes[24] 	93
scalar tree_4_3_u00_r2_network.node[24].content_store 	decision_no[24] 	8673
scalar tree_4_3_u00_r2_network.node[24].content_store 	decision_ratio[24] 	0.010609171800137
scalar tree_4_3_u00_r2_network.node[25].core_layer 	interests[25] 	12103
scalar tree_4_3_u00_r2_network.node[25].core_layer 	data[25] 	8521
scalar tree_4_3_u00_r2_network.node[25].content_store 	p_hit[25] 	0.29595967941833
scalar tree_4_3_u00_r2_network.node[25].content_store 	hits[25] 	3582
scalar tree_4_3_u00_r2_network.node[25].content_store 	misses[25] 	8521
scalar tree_4_3_u00_r2_network.node[25].content_store 	decision_yes[25] 	95
scalar tree_4_3_u00_r2_network.node[25].content_store 	decision_no[25] 	8426
scalar tree_4_3_u00_r2_network.node[25].content_store 	decision_ratio[25] 	0.011148926182373
scalar tree_4_3_u00_r2_network.node[26].core_layer 	interests[26] 	12334
scalar tree_4_3_u00_r2_network.node[26].core_layer 	data[26] 	8698
scalar tree_4_3_u00_r2_network.node[26].content_store 	p_hit[26] 	0.29479487595265
scalar tree_4_3_u00_r2_network.node[26].content_store 	hits[26] 	3636
scalar tree_4_3_u00_r2_network.node[26].content_store 	misses[26] 	8698
scalar tree_4_3_u00_r2_network.node[26].content_store 	decision_yes[26] 	114
scalar tree_4_3_u00_r2_network.node[26].content_store 	decision_no[26] 	8584
scalar tree_4_3_u00_r2_network.node[26].content_store 	decision_ratio[26] 	0.013106461255461
scalar tree_4_3_u00_r2_network.node[27].core_layer 	interests[27] 	12354
scalar tree_4_3_u00_r2_network.node[27].core_layer 	data[27] 	8645
scalar tree_4_3_u00_r2_network.node[27].content_store 	p_hit[27] 	0.30022664723976
scalar tree_4_3_u00_r2_network.node[27].content_store 	hits[27] 	3709
scalar tree_4_3_u00_r2_network.node[27].content_store 	misses[27] 	8645
scalar tree_4_3_u00_r2_network.node[27].content_store 	decision_yes[27] 	104
scalar tree_4_3_u00_r2_network.node[27].content_store 	decision_no[27] 	8541
scalar tree_4_3_u00_r2_network.node[27].content_store 	decision_ratio[27] 	0.01203007518797
scalar tree_4_3_u00_r2_network.node[28].core_layer 	interests[28] 	12428
scalar tree_4_3_u00_r2_network.node[28].core_layer 	data[28] 	8766
scalar tree_4_3_u00_r2_network.node[28].content_store 	p_hit[28] 	0.29465722561957
scalar tree_4_3_u00_r2_network.node[28].content_store 	hits[28] 	3662
scalar tree_4_3_u00_r2_network.node[28].content_store 	misses[28] 	8766
scalar tree_4_3_u00_r2_network.node[28].content_store 	decision_yes[28] 	98
scalar tree_4_3_u00_r2_network.node[28].content_store 	decision_no[28] 	8668
scalar tree_4_3_u00_r2_network.node[28].content_store 	decision_ratio[28] 	0.011179557380789
scalar tree_4_3_u00_r2_network.node[29].core_layer 	interests[29] 	12515
scalar tree_4_3_u00_r2_network.node[29].core_layer 	data[29] 	8801
scalar tree_4_3_u00_r2_network.node[29].content_store 	p_hit[29] 	0.29676388333999
scalar tree_4_3_u00_r2_network.node[29].content_store 	hits[29] 	3714
scalar tree_4_3_u00_r2_network.node[29].content_store 	misses[29] 	8801
scalar tree_4_3_u00_r2_network.node[29].content_store 	decision_yes[29] 	126
scalar tree_4_3_u00_r2_network.node[29].content_store 	decision_no[29] 	8675
scalar tree_4_3_u00_r2_network.node[29].content_store 	decision_ratio[29] 	0.014316554936939
scalar tree_4_3_u00_r2_network.node[30].core_layer 	interests[30] 	12527
scalar tree_4_3_u00_r2_network.node[30].core_layer 	data[30] 	8751
scalar tree_4_3_u00_r2_network.node[30].content_store 	p_hit[30] 	0.30142891354674
scalar tree_4_3_u00_r2_network.node[30].content_store 	hits[30] 	3776
scalar tree_4_3_u00_r2_network.node[30].content_store 	misses[30] 	8751
scalar tree_4_3_u00_r2_network.node[30].content_store 	decision_yes[30] 	111
scalar tree_4_3_u00_r2_network.node[30].content_store 	decision_no[30] 	8640
scalar tree_4_3_u00_r2_network.node[30].content_store 	decision_ratio[30] 	0.012684264655468
scalar tree_4_3_u00_r2_network.node[31].core_layer 	interests[31] 	12483
scalar tree_4_3_u00_r2_network.node[31].core_layer 	data[31] 	8765
scalar tree_4_3_u00_r2_network.node[31].content_store 	p_hit[31] 	0.29784506929424
scalar tree_4_3_u00_r2_network.node[31].content_store 	hits[31] 	3718
scalar tree_4_3_u00_r2_network.node[31].content_store 	misses[31] 	8765
scalar tree_4_3_u00_r2_network.node[31].content_store 	decision_yes[31] 	105
scalar tree_4_3_u00_r2_network.node[31].content_store 	decision_no[31] 	8660
scalar tree_4_3_u00_r2_network.node[31].content_store 	decision_ratio[31] 	0.011979463776383
scalar tree_4_3_u00_r2_network.node[32].core_layer 	interests[32] 	12432
scalar tree_4_3_u00_r2_network.node[32].core_layer 	data[32] 	8641
scalar tree_4_3_u00_r2_network.node[32].content_store 	p_hit[32] 	0.30493886743887
scalar tree_4_3_u00_r2_network.node[32].content_store 	hits[32] 	3791
scalar tree_4_3_u00_r2_network.node[32].content_store 	misses[32] 	8641
scalar tree_4_3_u00_r2_network.node[32].content_store 	decision_yes[32] 	112
scalar tree_4_3_u00_r2_network.node[32].content_store 	decision_no[32] 	8529
scalar tree_4_3_u00_r2_network.node[32].content_store 	decision_ratio[32] 	0.012961462793658
scalar tree_4_3_u00_r2_network.node[33].core_layer 	interests[33] 	12706
scalar tree_4_3_u00_r2_network.node[33].core_layer 	data[33] 	8880
scalar tree_4_3_u00_r2_network.node[33].content_store 	p_hit[33] 	0.30103887926964
scalar tree_4_3_u00_r2_network.node[33].content_store 	hits[33] 	3825
scalar tree_4_3_u00_r2_network.node[33].content_store 	misses[33] 	8881
scalar tree_4_3_u00_r2_network.node[33].content_store 	decision_yes[33] 	106
scalar tree_4_3_u00_r2_network.node[33].content_store 	decision_no[33] 	8774
scalar tree_4_3_u00_r2_network.node[33].content_store 	decision_ratio[33] 	0.011936936936937
scalar tree_4_3_u00_r2_network.node[34].core_layer 	interests[34] 	12551
scalar tree_4_3_u00_r2_network.node[34].core_layer 	data[34] 	8774
scalar tree_4_3_u00_r2_network.node[34].content_store 	p_hit[34] 	0.30093219663772
scalar tree_4_3_u00_r2_network.node[34].content_store 	hits[34] 	3777
scalar tree_4_3_u00_r2_network.node[34].content_store 	misses[34] 	8774
scalar tree_4_3_u00_r2_network.node[34].content_store 	decision_yes[34] 	114
scalar tree_4_3_u00_r2_network.node[34].content_store 	decision_no[34] 	8660
scalar tree_4_3_u00_r2_network.node[34].content_store 	decision_ratio[34] 	0.012992933667654
scalar tree_4_3_u00_r2_network.node[35].core_layer 	interests[35] 	12386
scalar tree_4_3_u00_r2_network.node[35].core_layer 	data[35] 	8675
scalar tree_4_3_u00_r2_network.node[35].content_store 	p_hit[35] 	0.29961246568707
scalar tree_4_3_u00_r2_network.node[35].content_store 	hits[35] 	3711
scalar tree_4_3_u00_r2_network.node[35].content_store 	misses[35] 	8675
scalar tree_4_3_u00_r2_network.node[35].content_store 	decision_yes[35] 	112
scalar tree_4_3_u00_r2_network.node[35].content_store 	decision_no[35] 	8563
scalar tree_4_3_u00_r2_network.node[35].content_store 	decision_ratio[35] 	0.012910662824207
scalar tree_4_3_u00_r2_network.node[36].core_layer 	interests[36] 	12779
scalar tree_4_3_u00_r2_network.node[36].core_layer 	data[36] 	8904
scalar tree_4_3_u00_r2_network.node[36].content_store 	p_hit[36] 	0.30323186477815
scalar tree_4_3_u00_r2_network.node[36].content_store 	hits[36] 	3875
scalar tree_4_3_u00_r2_network.node[36].content_store 	misses[36] 	8904
scalar tree_4_3_u00_r2_network.node[36].content_store 	decision_yes[36] 	106
scalar tree_4_3_u00_r2_network.node[36].content_store 	decision_no[36] 	8798
scalar tree_4_3_u00_r2_network.node[36].content_store 	decision_ratio[36] 	0.011904761904762
scalar tree_4_3_u00_r2_network.node[37].core_layer 	interests[37] 	12559
scalar tree_4_3_u00_r2_network.node[37].core_layer 	data[37] 	8712
scalar tree_4_3_u00_r2_network.node[37].content_store 	p_hit[37] 	0.30623457281631
scalar tree_4_3_u00_r2_network.node[37].content_store 	hits[37] 	3846
scalar tree_4_3_u00_r2_network.node[37].content_store 	misses[37] 	8713
scalar tree_4_3_u00_r2_network.node[37].content_store 	decision_yes[37] 	113
scalar tree_4_3_u00_r2_network.node[37].content_store 	decision_no[37] 	8599
scalar tree_4_3_u00_r2_network.node[37].content_store 	decision_ratio[37] 	0.012970615243343
scalar tree_4_3_u00_r2_network.node[38].core_layer 	interests[38] 	12401
scalar tree_4_3_u00_r2_network.node[38].core_layer 	data[38] 	8705
scalar tree_4_3_u00_r2_network.node[38].content_store 	p_hit[38] 	0.2980404806064
scalar tree_4_3_u00_r2_network.node[38].content_store 	hits[38] 	3696
scalar tree_4_3_u00_r2_network.node[38].content_store 	misses[38] 	8705
scalar tree_4_3_u00_r2_network.node[38].content_store 	decision_yes[38] 	129
scalar tree_4_3_u00_r2_network.node[38].content_store 	decision_no[38] 	8576
scalar tree_4_3_u00_r2_network.node[38].content_store 	decision_ratio[38] 	0.014819069500287
scalar tree_4_3_u00_r2_network.node[39].core_layer 	interests[39] 	12568
scalar tree_4_3_u00_r2_network.node[39].core_layer 	data[39] 	8832
scalar tree_4_3_u00_r2_network.node[39].content_store 	p_hit[39] 	0.29726288987906
scalar tree_4_3_u00_r2_network.node[39].content_store 	hits[39] 	3736
scalar tree_4_3_u00_r2_network.node[39].content_store 	misses[39] 	8832
scalar tree_4_3_u00_r2_network.node[39].content_store 	decision_yes[39] 	122
scalar tree_4_3_u00_r2_network.node[39].content_store 	decision_no[39] 	8710
scalar tree_4_3_u00_r2_network.node[39].content_store 	decision_ratio[39] 	0.013813405797101
scalar tree_4_3_u00_r2_network.client[13] 	hdistance[13] 	2.7050496688742
scalar tree_4_3_u00_r2_network.client[13] 	downloads[13] 	12080
scalar tree_4_3_u00_r2_network.client[13] 	avg_time[13] 	0.004198855228
scalar tree_4_3_u00_r2_network.client[14] 	hdistance[14] 	2.6853065626815
scalar tree_4_3_u00_r2_network.client[14] 	downloads[14] 	12053
scalar tree_4_3_u00_r2_network.client[14] 	avg_time[14] 	0.004181694466
scalar tree_4_3_u00_r2_network.client[15] 	hdistance[15] 	2.6736093684651
scalar tree_4_3_u00_r2_network.client[15] 	downloads[15] 	11955
scalar tree_4_3_u00_r2_network.client[15] 	avg_time[15] 	0.004144371737
scalar tree_4_3_u00_r2_network.client[16] 	hdistance[16] 	2.6849819917916
scalar tree_4_3_u00_r2_network.client[16] 	downloads[16] 	11939
scalar tree_4_3_u00_r2_network.client[16] 	avg_time[16] 	0.004172038203
scalar tree_4_3_u00_r2_network.client[17] 	hdistance[17] 	2.7240946725768
scalar tree_4_3_u00_r2_network.client[17] 	downloads[17] 	11957
scalar tree_4_3_u00_r2_network.client[17] 	avg_time[17] 	0.004230824625
scalar tree_4_3_u00_r2_network.client[18] 	hdistance[18] 	2.6721504112808
scalar tree_4_3_u00_r2_network.client[18] 	downloads[18] 	11914
scalar tree_4_3_u00_r2_network.client[18] 	avg_time[18] 	0.004159137531
scalar tree_4_3_u00_r2_network.client[19] 	hdistance[19] 	2.6777098479841
scalar tree_4_3_u00_r2_network.client[19] 	downloads[19] 	12104
scalar tree_4_3_u00_r2_network.client[19] 	avg_time[19] 	0.004162753116
scalar tree_4_3_u00_r2_network.client[20] 	hdistance[20] 	2.670050342494
scalar tree_4_3_u00_r2_network.client[20] 	downloads[20] 	12117
scalar tree_4_3_u00_r2_network.client[20] 	avg_time[20] 	0.004147723272
scalar tree_4_3_u00_r2_network.client[21] 	hdistance[21] 	2.6982438365417
scalar tree_4_3_u00_r2_network.client[21] 	downloads[21] 	11844
scalar tree_4_3_u00_r2_network.client[21] 	avg_time[21] 	0.004184731941
scalar tree_4_3_u00_r2_network.client[22] 	hdistance[22] 	2.6851727608185
scalar tree_4_3_u00_r2_network.client[22] 	downloads[22] 	11924
scalar tree_4_3_u00_r2_network.client[22] 	avg_time[22] 	0.004162861826
scalar tree_4_3_u00_r2_network.client[23] 	hdistance[23] 	2.7035661218425
scalar tree_4_3_u00_r2_network.client[23] 	downloads[23] 	12114
scalar tree_4_3_u00_r2_network.client[23] 	avg_time[23] 	0.004194482686
scalar tree_4_3_u00_r2_network.client[24] 	hdistance[24] 	2.7000083354172
scalar tree_4_3_u00_r2_network.client[24] 	downloads[24] 	11997
scalar tree_4_3_u00_r2_network.client[24] 	avg_time[24] 	0.004192378412
scalar tree_4_3_u00_r2_network.client[25] 	hdistance[25] 	2.6910122014092
scalar tree_4_3_u00_r2_network.client[25] 	downloads[25] 	11638
scalar tree_4_3_u00_r2_network.client[25] 	avg_time[25] 	0.004177347139
scalar tree_4_3_u00_r2_network.client[26] 	hdistance[26] 	2.6829022505878
scalar tree_4_3_u00_r2_network.client[26] 	downloads[26] 	11908
scalar tree_4_3_u00_r2_network.client[26] 	avg_time[26] 	0.004161737077
scalar tree_4_3_u00_r2_network.client[27] 	hdistance[27] 	2.6858898804513
scalar tree_4_3_u00_r2_network.client[27] 	downloads[27] 	11878
scalar tree_4_3_u00_r2_network.client[27] 	avg_time[27] 	0.004165176383
scalar tree_4_3_u00_r2_network.client[28] 	hdistance[28] 	2.7068720180799
scalar tree_4_3_u00_r2_network.client[28] 	downloads[28] 	11947
scalar tree_4_3_u00_r2_network.client[28] 	avg_time[28] 	0.004198875409
scalar tree_4_3_u00_r2_network.client[29] 	hdistance[29] 	2.6909422694094
scalar tree_4_3_u00_r2_network.client[29] 	downloads[29] 	12056
scalar tree_4_3_u00_r2_network.client[29] 	avg_time[29] 	0.00417595117
scalar tree_4_3_u00_r2_network.client[30] 	hdistance[30] 	2.6831749207937
scalar tree_4_3_u00_r2_network.client[30] 	downloads[30] 	11994
scalar tree_4_3_u00_r2_network.client[30] 	avg_time[30] 	0.004167308437
scalar tree_4_3_u00_r2_network.client[31] 	hdistance[31] 	2.6994822979292
scalar tree_4_3_u00_r2_network.client[31] 	downloads[31] 	11976
scalar tree_4_3_u00_r2_network.client[31] 	avg_time[31] 	0.004190878789
scalar tree_4_3_u00_r2_network.client[32] 	hdistance[32] 	2.6726951547779
scalar tree_4_3_u00_r2_network.client[32] 	downloads[32] 	11888
scalar tree_4_3_u00_r2_network.client[32] 	avg_time[32] 	0.004153597305
scalar tree_4_3_u00_r2_network.client[33] 	hdistance[33] 	2.6817584223501
scalar tree_4_3_u00_r2_network.client[33] 	downloads[33] 	12170
scalar tree_4_3_u00_r2_network.client[33] 	avg_time[33] 	0.004164664189
scalar tree_4_3_u00_r2_network.client[34] 	hdistance[34] 	2.6754669987547
scalar tree_4_3_u00_r2_network.client[34] 	downloads[34] 	12045
scalar tree_4_3_u00_r2_network.client[34] 	avg_time[34] 	0.004150598891
scalar tree_4_3_u00_r2_network.client[35] 	hdistance[35] 	2.6783522488441
scalar tree_4_3_u00_r2_network.client[35] 	downloads[35] 	11895
scalar tree_4_3_u00_r2_network.client[35] 	avg_time[35] 	0.004161913816
scalar tree_4_3_u00_r2_network.client[36] 	hdistance[36] 	2.6839183673469
scalar tree_4_3_u00_r2_network.client[36] 	downloads[36] 	12250
scalar tree_4_3_u00_r2_network.client[36] 	avg_time[36] 	0.004163609498
scalar tree_4_3_u00_r2_network.client[37] 	hdistance[37] 	2.658722909574
scalar tree_4_3_u00_r2_network.client[37] 	downloads[37] 	12043
scalar tree_4_3_u00_r2_network.client[37] 	avg_time[37] 	0.00412953278
scalar tree_4_3_u00_r2_network.client[38] 	hdistance[38] 	2.6842016947731
scalar tree_4_3_u00_r2_network.client[38] 	downloads[38] 	11919
scalar tree_4_3_u00_r2_network.client[38] 	avg_time[38] 	0.004178535492
scalar tree_4_3_u00_r2_network.client[39] 	hdistance[39] 	2.6917393109174
scalar tree_4_3_u00_r2_network.client[39] 	downloads[39] 	12045
scalar tree_4_3_u00_r2_network.client[39] 	avg_time[39] 	0.004188788994
