version 2
run General-0-20160831-18:07:33-8710
attr a 0.9
attr cd ffc
attr configname General
attr cr lru
attr datetime 20160831-18:07:33
attr experiment General
attr fsize 1
attr inifile hw5115/scenario_Y/omnetp.ini
attr iterationvars "$name=tree_4_3, $un=00, $rep=1, $cd=ffc, $cr=lru, $fsize=1, $a=0.9, $sl=nrr, $ttl=1000, $variance=0.05"
attr iterationvars2 "$name=tree_4_3, $un=00, $rep=1, $cd=ffc, $cr=lru, $fsize=1, $a=0.9, $sl=nrr, $ttl=1000, $variance=0.05, $repetition=0"
attr measurement "$name=tree_4_3, $un=00, $rep=1, $cd=ffc, $cr=lru, $fsize=1, $a=0.9, $sl=nrr, $ttl=1000, $variance=0.05"
attr name tree_4_3
attr network networks.${name}_u${un}_r${rep}_network
attr processid 8710
attr rep 1
attr repetition 0
attr replication #0
attr resultdir results
attr runnumber 0
attr seedset 1
attr sl nrr
attr ttl 1000
attr un 00
attr variance 0.05

scalar . 	a 	0.9
scalar . 	fsize 	1
scalar . 	rep 	1
scalar . 	ttl 	1000
scalar . 	un 	00
scalar . 	variance 	0.05
scalar tree_4_3_u00_r1_network.content_distribution 	repo-0 	0
scalar tree_4_3_u00_r1_network.content_distribution 	client-0 	13
scalar tree_4_3_u00_r1_network.content_distribution 	client-1 	14
scalar tree_4_3_u00_r1_network.content_distribution 	client-2 	15
scalar tree_4_3_u00_r1_network.content_distribution 	client-3 	16
scalar tree_4_3_u00_r1_network.content_distribution 	client-4 	17
scalar tree_4_3_u00_r1_network.content_distribution 	client-5 	18
scalar tree_4_3_u00_r1_network.content_distribution 	client-6 	19
scalar tree_4_3_u00_r1_network.content_distribution 	client-7 	20
scalar tree_4_3_u00_r1_network.content_distribution 	client-8 	21
scalar tree_4_3_u00_r1_network.content_distribution 	client-9 	22
scalar tree_4_3_u00_r1_network.content_distribution 	client-10 	23
scalar tree_4_3_u00_r1_network.content_distribution 	client-11 	24
scalar tree_4_3_u00_r1_network.content_distribution 	client-12 	25
scalar tree_4_3_u00_r1_network.content_distribution 	client-13 	26
scalar tree_4_3_u00_r1_network.content_distribution 	client-14 	27
scalar tree_4_3_u00_r1_network.content_distribution 	client-15 	28
scalar tree_4_3_u00_r1_network.content_distribution 	client-16 	29
scalar tree_4_3_u00_r1_network.content_distribution 	client-17 	30
scalar tree_4_3_u00_r1_network.content_distribution 	client-18 	31
scalar tree_4_3_u00_r1_network.content_distribution 	client-19 	32
scalar tree_4_3_u00_r1_network.content_distribution 	client-20 	33
scalar tree_4_3_u00_r1_network.content_distribution 	client-21 	34
scalar tree_4_3_u00_r1_network.content_distribution 	client-22 	35
scalar tree_4_3_u00_r1_network.content_distribution 	client-23 	36
scalar tree_4_3_u00_r1_network.content_distribution 	client-24 	37
scalar tree_4_3_u00_r1_network.content_distribution 	client-25 	38
scalar tree_4_3_u00_r1_network.content_distribution 	client-26 	39
scalar tree_4_3_u00_r1_network.content_distribution 	repo-0_card 	100000
scalar tree_4_3_u00_r1_network.content_distribution 	repo-0_price 	0
scalar tree_4_3_u00_r1_network.statistics 	stabilization_time 	909.1
scalar tree_4_3_u00_r1_network.statistics 	p_hit 	0.22100726046263
scalar tree_4_3_u00_r1_network.statistics 	interests 	25014.15
scalar tree_4_3_u00_r1_network.statistics 	data 	16918.325
scalar tree_4_3_u00_r1_network.statistics 	hdistance 	2.6914682958721
scalar tree_4_3_u00_r1_network.statistics 	avg_time 	0.00417952329
scalar tree_4_3_u00_r1_network.statistics 	downloads 	323831
scalar tree_4_3_u00_r1_network.statistics 	total_cost 	0
scalar tree_4_3_u00_r1_network.statistics 	total_replicas 	100000
scalar tree_4_3_u00_r1_network.statistics 	inner_hit 	0.39830652408201
scalar tree_4_3_u00_r1_network.node[0].core_layer 	interests[0] 	198122
scalar tree_4_3_u00_r1_network.node[0].core_layer 	repo_load[0] 	194847
scalar tree_4_3_u00_r1_network.node[0].core_layer 	data[0] 	0
scalar tree_4_3_u00_r1_network.node[0].core_layer 	repo_int[0] 	194847
scalar tree_4_3_u00_r1_network.node[0].content_store 	p_hit[0] 	0.016530218754101
scalar tree_4_3_u00_r1_network.node[0].content_store 	hits[0] 	3275
scalar tree_4_3_u00_r1_network.node[0].content_store 	misses[0] 	194847
scalar tree_4_3_u00_r1_network.node[0].content_store 	decision_yes[0] 	987
scalar tree_4_3_u00_r1_network.node[0].content_store 	decision_no[0] 	193860
scalar tree_4_3_u00_r1_network.node[0].content_store 	decision_ratio[0] 	0.0050655129409229
scalar tree_4_3_u00_r1_network.node[1].core_layer 	interests[1] 	72114
scalar tree_4_3_u00_r1_network.node[1].core_layer 	data[1] 	70299
scalar tree_4_3_u00_r1_network.node[1].content_store 	p_hit[1] 	0.025154616301966
scalar tree_4_3_u00_r1_network.node[1].content_store 	hits[1] 	1814
scalar tree_4_3_u00_r1_network.node[1].content_store 	misses[1] 	70300
scalar tree_4_3_u00_r1_network.node[1].content_store 	decision_yes[1] 	478
scalar tree_4_3_u00_r1_network.node[1].content_store 	decision_no[1] 	69820
scalar tree_4_3_u00_r1_network.node[1].content_store 	decision_ratio[1] 	0.0067996244558878
scalar tree_4_3_u00_r1_network.node[2].core_layer 	interests[2] 	71950
scalar tree_4_3_u00_r1_network.node[2].core_layer 	data[2] 	70098
scalar tree_4_3_u00_r1_network.node[2].content_store 	p_hit[2] 	0.025740097289785
scalar tree_4_3_u00_r1_network.node[2].content_store 	hits[2] 	1852
scalar tree_4_3_u00_r1_network.node[2].content_store 	misses[2] 	70098
scalar tree_4_3_u00_r1_network.node[2].content_store 	decision_yes[2] 	531
scalar tree_4_3_u00_r1_network.node[2].content_store 	decision_no[2] 	69567
scalar tree_4_3_u00_r1_network.node[2].content_store 	decision_ratio[2] 	0.0075751091329282
scalar tree_4_3_u00_r1_network.node[3].core_layer 	interests[3] 	71736
scalar tree_4_3_u00_r1_network.node[3].core_layer 	data[3] 	69742
scalar tree_4_3_u00_r1_network.node[3].content_store 	p_hit[3] 	0.027768484442958
scalar tree_4_3_u00_r1_network.node[3].content_store 	hits[3] 	1992
scalar tree_4_3_u00_r1_network.node[3].content_store 	misses[3] 	69744
scalar tree_4_3_u00_r1_network.node[3].content_store 	decision_yes[3] 	484
scalar tree_4_3_u00_r1_network.node[3].content_store 	decision_no[3] 	69258
scalar tree_4_3_u00_r1_network.node[3].content_store 	decision_ratio[3] 	0.006939864070431
scalar tree_4_3_u00_r1_network.node[4].core_layer 	interests[4] 	27856
scalar tree_4_3_u00_r1_network.node[4].core_layer 	data[4] 	25773
scalar tree_4_3_u00_r1_network.node[4].content_store 	p_hit[4] 	0.074741527857553
scalar tree_4_3_u00_r1_network.node[4].content_store 	hits[4] 	2082
scalar tree_4_3_u00_r1_network.node[4].content_store 	misses[4] 	25774
scalar tree_4_3_u00_r1_network.node[4].content_store 	decision_yes[4] 	316
scalar tree_4_3_u00_r1_network.node[4].content_store 	decision_no[4] 	25457
scalar tree_4_3_u00_r1_network.node[4].content_store 	decision_ratio[4] 	0.012260893182788
scalar tree_4_3_u00_r1_network.node[5].core_layer 	interests[5] 	27739
scalar tree_4_3_u00_r1_network.node[5].core_layer 	data[5] 	25524
scalar tree_4_3_u00_r1_network.node[5].content_store 	p_hit[5] 	0.079815422329572
scalar tree_4_3_u00_r1_network.node[5].content_store 	hits[5] 	2214
scalar tree_4_3_u00_r1_network.node[5].content_store 	misses[5] 	25525
scalar tree_4_3_u00_r1_network.node[5].content_store 	decision_yes[5] 	312
scalar tree_4_3_u00_r1_network.node[5].content_store 	decision_no[5] 	25212
scalar tree_4_3_u00_r1_network.node[5].content_store 	decision_ratio[5] 	0.012223789374706
scalar tree_4_3_u00_r1_network.node[6].core_layer 	interests[6] 	27473
scalar tree_4_3_u00_r1_network.node[6].core_layer 	data[6] 	25291
scalar tree_4_3_u00_r1_network.node[6].content_store 	p_hit[6] 	0.079459833290867
scalar tree_4_3_u00_r1_network.node[6].content_store 	hits[6] 	2183
scalar tree_4_3_u00_r1_network.node[6].content_store 	misses[6] 	25290
scalar tree_4_3_u00_r1_network.node[6].content_store 	decision_yes[6] 	297
scalar tree_4_3_u00_r1_network.node[6].content_store 	decision_no[6] 	24994
scalar tree_4_3_u00_r1_network.node[6].content_store 	decision_ratio[6] 	0.01174330789609
scalar tree_4_3_u00_r1_network.node[7].core_layer 	interests[7] 	27808
scalar tree_4_3_u00_r1_network.node[7].core_layer 	data[7] 	25711
scalar tree_4_3_u00_r1_network.node[7].content_store 	p_hit[7] 	0.075409953970081
scalar tree_4_3_u00_r1_network.node[7].content_store 	hits[7] 	2097
scalar tree_4_3_u00_r1_network.node[7].content_store 	misses[7] 	25711
scalar tree_4_3_u00_r1_network.node[7].content_store 	decision_yes[7] 	304
scalar tree_4_3_u00_r1_network.node[7].content_store 	decision_no[7] 	25407
scalar tree_4_3_u00_r1_network.node[7].content_store 	decision_ratio[7] 	0.011823733032554
scalar tree_4_3_u00_r1_network.node[8].core_layer 	interests[8] 	27795
scalar tree_4_3_u00_r1_network.node[8].core_layer 	data[8] 	25498
scalar tree_4_3_u00_r1_network.node[8].content_store 	p_hit[8] 	0.082640762727109
scalar tree_4_3_u00_r1_network.node[8].content_store 	hits[8] 	2297
scalar tree_4_3_u00_r1_network.node[8].content_store 	misses[8] 	25498
scalar tree_4_3_u00_r1_network.node[8].content_store 	decision_yes[8] 	253
scalar tree_4_3_u00_r1_network.node[8].content_store 	decision_no[8] 	25245
scalar tree_4_3_u00_r1_network.node[8].content_store 	decision_ratio[8] 	0.0099223468507334
scalar tree_4_3_u00_r1_network.node[9].core_layer 	interests[9] 	27509
scalar tree_4_3_u00_r1_network.node[9].core_layer 	data[9] 	25433
scalar tree_4_3_u00_r1_network.node[9].content_store 	p_hit[9] 	0.075393507579338
scalar tree_4_3_u00_r1_network.node[9].content_store 	hits[9] 	2074
scalar tree_4_3_u00_r1_network.node[9].content_store 	misses[9] 	25435
scalar tree_4_3_u00_r1_network.node[9].content_store 	decision_yes[9] 	292
scalar tree_4_3_u00_r1_network.node[9].content_store 	decision_no[9] 	25141
scalar tree_4_3_u00_r1_network.node[9].content_store 	decision_ratio[9] 	0.011481146541894
scalar tree_4_3_u00_r1_network.node[10].core_layer 	interests[10] 	27639
scalar tree_4_3_u00_r1_network.node[10].core_layer 	data[10] 	25447
scalar tree_4_3_u00_r1_network.node[10].content_store 	p_hit[10] 	0.079308223886537
scalar tree_4_3_u00_r1_network.node[10].content_store 	hits[10] 	2192
scalar tree_4_3_u00_r1_network.node[10].content_store 	misses[10] 	25447
scalar tree_4_3_u00_r1_network.node[10].content_store 	decision_yes[10] 	308
scalar tree_4_3_u00_r1_network.node[10].content_store 	decision_no[10] 	25139
scalar tree_4_3_u00_r1_network.node[10].content_store 	decision_ratio[10] 	0.012103587849255
scalar tree_4_3_u00_r1_network.node[11].core_layer 	interests[11] 	27662
scalar tree_4_3_u00_r1_network.node[11].core_layer 	data[11] 	25493
scalar tree_4_3_u00_r1_network.node[11].content_store 	p_hit[11] 	0.078410816282264
scalar tree_4_3_u00_r1_network.node[11].content_store 	hits[11] 	2169
scalar tree_4_3_u00_r1_network.node[11].content_store 	misses[11] 	25493
scalar tree_4_3_u00_r1_network.node[11].content_store 	decision_yes[11] 	299
scalar tree_4_3_u00_r1_network.node[11].content_store 	decision_no[11] 	25194
scalar tree_4_3_u00_r1_network.node[11].content_store 	decision_ratio[11] 	0.011728709841917
scalar tree_4_3_u00_r1_network.node[12].core_layer 	interests[12] 	27595
scalar tree_4_3_u00_r1_network.node[12].core_layer 	data[12] 	25366
scalar tree_4_3_u00_r1_network.node[12].content_store 	p_hit[12] 	0.080811741257474
scalar tree_4_3_u00_r1_network.node[12].content_store 	hits[12] 	2230
scalar tree_4_3_u00_r1_network.node[12].content_store 	misses[12] 	25365
scalar tree_4_3_u00_r1_network.node[12].content_store 	decision_yes[12] 	314
scalar tree_4_3_u00_r1_network.node[12].content_store 	decision_no[12] 	25052
scalar tree_4_3_u00_r1_network.node[12].content_store 	decision_ratio[12] 	0.012378774737838
scalar tree_4_3_u00_r1_network.node[13].core_layer 	interests[13] 	12678
scalar tree_4_3_u00_r1_network.node[13].core_layer 	data[13] 	8906
scalar tree_4_3_u00_r1_network.node[13].content_store 	p_hit[13] 	0.29752326865436
scalar tree_4_3_u00_r1_network.node[13].content_store 	hits[13] 	3772
scalar tree_4_3_u00_r1_network.node[13].content_store 	misses[13] 	8906
scalar tree_4_3_u00_r1_network.node[13].content_store 	decision_yes[13] 	118
scalar tree_4_3_u00_r1_network.node[13].content_store 	decision_no[13] 	8788
scalar tree_4_3_u00_r1_network.node[13].content_store 	decision_ratio[13] 	0.013249494722659
scalar tree_4_3_u00_r1_network.node[14].core_layer 	interests[14] 	12450
scalar tree_4_3_u00_r1_network.node[14].core_layer 	data[14] 	8826
scalar tree_4_3_u00_r1_network.node[14].content_store 	p_hit[14] 	0.2910843373494
scalar tree_4_3_u00_r1_network.node[14].content_store 	hits[14] 	3624
scalar tree_4_3_u00_r1_network.node[14].content_store 	misses[14] 	8826
scalar tree_4_3_u00_r1_network.node[14].content_store 	decision_yes[14] 	115
scalar tree_4_3_u00_r1_network.node[14].content_store 	decision_no[14] 	8711
scalar tree_4_3_u00_r1_network.node[14].content_store 	decision_ratio[14] 	0.013029685021527
scalar tree_4_3_u00_r1_network.node[15].core_layer 	interests[15] 	12706
scalar tree_4_3_u00_r1_network.node[15].core_layer 	data[15] 	8980
scalar tree_4_3_u00_r1_network.node[15].content_store 	p_hit[15] 	0.29324728474736
scalar tree_4_3_u00_r1_network.node[15].content_store 	hits[15] 	3726
scalar tree_4_3_u00_r1_network.node[15].content_store 	misses[15] 	8980
scalar tree_4_3_u00_r1_network.node[15].content_store 	decision_yes[15] 	129
scalar tree_4_3_u00_r1_network.node[15].content_store 	decision_no[15] 	8851
scalar tree_4_3_u00_r1_network.node[15].content_store 	decision_ratio[15] 	0.014365256124722
scalar tree_4_3_u00_r1_network.node[16].core_layer 	interests[16] 	12746
scalar tree_4_3_u00_r1_network.node[16].core_layer 	data[16] 	8895
scalar tree_4_3_u00_r1_network.node[16].content_store 	p_hit[16] 	0.30205554683822
scalar tree_4_3_u00_r1_network.node[16].content_store 	hits[16] 	3850
scalar tree_4_3_u00_r1_network.node[16].content_store 	misses[16] 	8896
scalar tree_4_3_u00_r1_network.node[16].content_store 	decision_yes[16] 	125
scalar tree_4_3_u00_r1_network.node[16].content_store 	decision_no[16] 	8770
scalar tree_4_3_u00_r1_network.node[16].content_store 	decision_ratio[16] 	0.014052838673412
scalar tree_4_3_u00_r1_network.node[17].core_layer 	interests[17] 	12479
scalar tree_4_3_u00_r1_network.node[17].core_layer 	data[17] 	8791
scalar tree_4_3_u00_r1_network.node[17].content_store 	p_hit[17] 	0.29553650132222
scalar tree_4_3_u00_r1_network.node[17].content_store 	hits[17] 	3688
scalar tree_4_3_u00_r1_network.node[17].content_store 	misses[17] 	8791
scalar tree_4_3_u00_r1_network.node[17].content_store 	decision_yes[17] 	105
scalar tree_4_3_u00_r1_network.node[17].content_store 	decision_no[17] 	8686
scalar tree_4_3_u00_r1_network.node[17].content_store 	decision_ratio[17] 	0.0119440336708
scalar tree_4_3_u00_r1_network.node[18].core_layer 	interests[18] 	12342
scalar tree_4_3_u00_r1_network.node[18].core_layer 	data[18] 	8604
scalar tree_4_3_u00_r1_network.node[18].content_store 	p_hit[18] 	0.30286825473991
scalar tree_4_3_u00_r1_network.node[18].content_store 	hits[18] 	3738
scalar tree_4_3_u00_r1_network.node[18].content_store 	misses[18] 	8604
scalar tree_4_3_u00_r1_network.node[18].content_store 	decision_yes[18] 	126
scalar tree_4_3_u00_r1_network.node[18].content_store 	decision_no[18] 	8478
scalar tree_4_3_u00_r1_network.node[18].content_store 	decision_ratio[18] 	0.014644351464435
scalar tree_4_3_u00_r1_network.node[19].core_layer 	interests[19] 	12462
scalar tree_4_3_u00_r1_network.node[19].core_layer 	data[19] 	8765
scalar tree_4_3_u00_r1_network.node[19].content_store 	p_hit[19] 	0.29666185203017
scalar tree_4_3_u00_r1_network.node[19].content_store 	hits[19] 	3697
scalar tree_4_3_u00_r1_network.node[19].content_store 	misses[19] 	8765
scalar tree_4_3_u00_r1_network.node[19].content_store 	decision_yes[19] 	111
scalar tree_4_3_u00_r1_network.node[19].content_store 	decision_no[19] 	8654
scalar tree_4_3_u00_r1_network.node[19].content_store 	decision_ratio[19] 	0.012664004563605
scalar tree_4_3_u00_r1_network.node[20].core_layer 	interests[20] 	12470
scalar tree_4_3_u00_r1_network.node[20].core_layer 	data[20] 	8743
scalar tree_4_3_u00_r1_network.node[20].content_store 	p_hit[20] 	0.29887730553328
scalar tree_4_3_u00_r1_network.node[20].content_store 	hits[20] 	3727
scalar tree_4_3_u00_r1_network.node[20].content_store 	misses[20] 	8743
scalar tree_4_3_u00_r1_network.node[20].content_store 	decision_yes[20] 	111
scalar tree_4_3_u00_r1_network.node[20].content_store 	decision_no[20] 	8632
scalar tree_4_3_u00_r1_network.node[20].content_store 	decision_ratio[20] 	0.0126958709825
scalar tree_4_3_u00_r1_network.node[21].core_layer 	interests[21] 	12353
scalar tree_4_3_u00_r1_network.node[21].core_layer 	data[21] 	8639
scalar tree_4_3_u00_r1_network.node[21].content_store 	p_hit[21] 	0.30073666315875
scalar tree_4_3_u00_r1_network.node[21].content_store 	hits[21] 	3715
scalar tree_4_3_u00_r1_network.node[21].content_store 	misses[21] 	8638
scalar tree_4_3_u00_r1_network.node[21].content_store 	decision_yes[21] 	104
scalar tree_4_3_u00_r1_network.node[21].content_store 	decision_no[21] 	8535
scalar tree_4_3_u00_r1_network.node[21].content_store 	decision_ratio[21] 	0.012038430373886
scalar tree_4_3_u00_r1_network.node[22].core_layer 	interests[22] 	12741
scalar tree_4_3_u00_r1_network.node[22].core_layer 	data[22] 	8953
scalar tree_4_3_u00_r1_network.node[22].content_store 	p_hit[22] 	0.29730790361824
scalar tree_4_3_u00_r1_network.node[22].content_store 	hits[22] 	3788
scalar tree_4_3_u00_r1_network.node[22].content_store 	misses[22] 	8953
scalar tree_4_3_u00_r1_network.node[22].content_store 	decision_yes[22] 	112
scalar tree_4_3_u00_r1_network.node[22].content_store 	decision_no[22] 	8841
scalar tree_4_3_u00_r1_network.node[22].content_store 	decision_ratio[22] 	0.01250977326036
scalar tree_4_3_u00_r1_network.node[23].core_layer 	interests[23] 	12530
scalar tree_4_3_u00_r1_network.node[23].core_layer 	data[23] 	8757
scalar tree_4_3_u00_r1_network.node[23].content_store 	p_hit[23] 	0.30111731843575
scalar tree_4_3_u00_r1_network.node[23].content_store 	hits[23] 	3773
scalar tree_4_3_u00_r1_network.node[23].content_store 	misses[23] 	8757
scalar tree_4_3_u00_r1_network.node[23].content_store 	decision_yes[23] 	95
scalar tree_4_3_u00_r1_network.node[23].content_store 	decision_no[23] 	8662
scalar tree_4_3_u00_r1_network.node[23].content_store 	decision_ratio[23] 	0.010848464085874
scalar tree_4_3_u00_r1_network.node[24].core_layer 	interests[24] 	12549
scalar tree_4_3_u00_r1_network.node[24].core_layer 	data[24] 	8754
scalar tree_4_3_u00_r1_network.node[24].content_store 	p_hit[24] 	0.3023348473982
scalar tree_4_3_u00_r1_network.node[24].content_store 	hits[24] 	3794
scalar tree_4_3_u00_r1_network.node[24].content_store 	misses[24] 	8755
scalar tree_4_3_u00_r1_network.node[24].content_store 	decision_yes[24] 	119
scalar tree_4_3_u00_r1_network.node[24].content_store 	decision_no[24] 	8635
scalar tree_4_3_u00_r1_network.node[24].content_store 	decision_ratio[24] 	0.013593785697967
scalar tree_4_3_u00_r1_network.node[25].core_layer 	interests[25] 	12550
scalar tree_4_3_u00_r1_network.node[25].core_layer 	data[25] 	8929
scalar tree_4_3_u00_r1_network.node[25].content_store 	p_hit[25] 	0.28852589641434
scalar tree_4_3_u00_r1_network.node[25].content_store 	hits[25] 	3621
scalar tree_4_3_u00_r1_network.node[25].content_store 	misses[25] 	8929
scalar tree_4_3_u00_r1_network.node[25].content_store 	decision_yes[25] 	127
scalar tree_4_3_u00_r1_network.node[25].content_store 	decision_no[25] 	8802
scalar tree_4_3_u00_r1_network.node[25].content_store 	decision_ratio[25] 	0.014223317280771
scalar tree_4_3_u00_r1_network.node[26].core_layer 	interests[26] 	12565
scalar tree_4_3_u00_r1_network.node[26].core_layer 	data[26] 	8819
scalar tree_4_3_u00_r1_network.node[26].content_store 	p_hit[26] 	0.29812972542778
scalar tree_4_3_u00_r1_network.node[26].content_store 	hits[26] 	3746
scalar tree_4_3_u00_r1_network.node[26].content_store 	misses[26] 	8819
scalar tree_4_3_u00_r1_network.node[26].content_store 	decision_yes[26] 	104
scalar tree_4_3_u00_r1_network.node[26].content_store 	decision_no[26] 	8715
scalar tree_4_3_u00_r1_network.node[26].content_store 	decision_ratio[26] 	0.011792720263068
scalar tree_4_3_u00_r1_network.node[27].core_layer 	interests[27] 	12430
scalar tree_4_3_u00_r1_network.node[27].core_layer 	data[27] 	8686
scalar tree_4_3_u00_r1_network.node[27].content_store 	p_hit[27] 	0.30120675784393
scalar tree_4_3_u00_r1_network.node[27].content_store 	hits[27] 	3744
scalar tree_4_3_u00_r1_network.node[27].content_store 	misses[27] 	8686
scalar tree_4_3_u00_r1_network.node[27].content_store 	decision_yes[27] 	108
scalar tree_4_3_u00_r1_network.node[27].content_store 	decision_no[27] 	8578
scalar tree_4_3_u00_r1_network.node[27].content_store 	decision_ratio[27] 	0.012433801519687
scalar tree_4_3_u00_r1_network.node[28].core_layer 	interests[28] 	12394
scalar tree_4_3_u00_r1_network.node[28].core_layer 	data[28] 	8631
scalar tree_4_3_u00_r1_network.node[28].content_store 	p_hit[28] 	0.30361465225109
scalar tree_4_3_u00_r1_network.node[28].content_store 	hits[28] 	3763
scalar tree_4_3_u00_r1_network.node[28].content_store 	misses[28] 	8631
scalar tree_4_3_u00_r1_network.node[28].content_store 	decision_yes[28] 	113
scalar tree_4_3_u00_r1_network.node[28].content_store 	decision_no[28] 	8518
scalar tree_4_3_u00_r1_network.node[28].content_store 	decision_ratio[28] 	0.013092341559495
scalar tree_4_3_u00_r1_network.node[29].core_layer 	interests[29] 	12502
scalar tree_4_3_u00_r1_network.node[29].core_layer 	data[29] 	8771
scalar tree_4_3_u00_r1_network.node[29].content_store 	p_hit[29] 	0.29827227643577
scalar tree_4_3_u00_r1_network.node[29].content_store 	hits[29] 	3729
scalar tree_4_3_u00_r1_network.node[29].content_store 	misses[29] 	8773
scalar tree_4_3_u00_r1_network.node[29].content_store 	decision_yes[29] 	110
scalar tree_4_3_u00_r1_network.node[29].content_store 	decision_no[29] 	8661
scalar tree_4_3_u00_r1_network.node[29].content_store 	decision_ratio[29] 	0.012541329380914
scalar tree_4_3_u00_r1_network.node[30].core_layer 	interests[30] 	12535
scalar tree_4_3_u00_r1_network.node[30].core_layer 	data[30] 	8770
scalar tree_4_3_u00_r1_network.node[30].content_store 	p_hit[30] 	0.30035899481452
scalar tree_4_3_u00_r1_network.node[30].content_store 	hits[30] 	3765
scalar tree_4_3_u00_r1_network.node[30].content_store 	misses[30] 	8770
scalar tree_4_3_u00_r1_network.node[30].content_store 	decision_yes[30] 	89
scalar tree_4_3_u00_r1_network.node[30].content_store 	decision_no[30] 	8681
scalar tree_4_3_u00_r1_network.node[30].content_store 	decision_ratio[30] 	0.010148232611174
scalar tree_4_3_u00_r1_network.node[31].core_layer 	interests[31] 	12449
scalar tree_4_3_u00_r1_network.node[31].core_layer 	data[31] 	8735
scalar tree_4_3_u00_r1_network.node[31].content_store 	p_hit[31] 	0.29833721584063
scalar tree_4_3_u00_r1_network.node[31].content_store 	hits[31] 	3714
scalar tree_4_3_u00_r1_network.node[31].content_store 	misses[31] 	8735
scalar tree_4_3_u00_r1_network.node[31].content_store 	decision_yes[31] 	101
scalar tree_4_3_u00_r1_network.node[31].content_store 	decision_no[31] 	8634
scalar tree_4_3_u00_r1_network.node[31].content_store 	decision_ratio[31] 	0.011562678878077
scalar tree_4_3_u00_r1_network.node[32].core_layer 	interests[32] 	12488
scalar tree_4_3_u00_r1_network.node[32].core_layer 	data[32] 	8817
scalar tree_4_3_u00_r1_network.node[32].content_store 	p_hit[32] 	0.29396220371557
scalar tree_4_3_u00_r1_network.node[32].content_store 	hits[32] 	3671
scalar tree_4_3_u00_r1_network.node[32].content_store 	misses[32] 	8817
scalar tree_4_3_u00_r1_network.node[32].content_store 	decision_yes[32] 	140
scalar tree_4_3_u00_r1_network.node[32].content_store 	decision_no[32] 	8677
scalar tree_4_3_u00_r1_network.node[32].content_store 	decision_ratio[32] 	0.015878416695021
scalar tree_4_3_u00_r1_network.node[33].core_layer 	interests[33] 	12432
scalar tree_4_3_u00_r1_network.node[33].core_layer 	data[33] 	8739
scalar tree_4_3_u00_r1_network.node[33].content_store 	p_hit[33] 	0.29705598455598
scalar tree_4_3_u00_r1_network.node[33].content_store 	hits[33] 	3693
scalar tree_4_3_u00_r1_network.node[33].content_store 	misses[33] 	8739
scalar tree_4_3_u00_r1_network.node[33].content_store 	decision_yes[33] 	102
scalar tree_4_3_u00_r1_network.node[33].content_store 	decision_no[33] 	8637
scalar tree_4_3_u00_r1_network.node[33].content_store 	decision_ratio[33] 	0.011671815997254
scalar tree_4_3_u00_r1_network.node[34].core_layer 	interests[34] 	12432
scalar tree_4_3_u00_r1_network.node[34].core_layer 	data[34] 	8879
scalar tree_4_3_u00_r1_network.node[34].content_store 	p_hit[34] 	0.28579472329472
scalar tree_4_3_u00_r1_network.node[34].content_store 	hits[34] 	3553
scalar tree_4_3_u00_r1_network.node[34].content_store 	misses[34] 	8879
scalar tree_4_3_u00_r1_network.node[34].content_store 	decision_yes[34] 	138
scalar tree_4_3_u00_r1_network.node[34].content_store 	decision_no[34] 	8741
scalar tree_4_3_u00_r1_network.node[34].content_store 	decision_ratio[34] 	0.015542290798513
scalar tree_4_3_u00_r1_network.node[35].core_layer 	interests[35] 	12570
scalar tree_4_3_u00_r1_network.node[35].core_layer 	data[35] 	8814
scalar tree_4_3_u00_r1_network.node[35].content_store 	p_hit[35] 	0.29880668257757
scalar tree_4_3_u00_r1_network.node[35].content_store 	hits[35] 	3756
scalar tree_4_3_u00_r1_network.node[35].content_store 	misses[35] 	8814
scalar tree_4_3_u00_r1_network.node[35].content_store 	decision_yes[35] 	110
scalar tree_4_3_u00_r1_network.node[35].content_store 	decision_no[35] 	8704
scalar tree_4_3_u00_r1_network.node[35].content_store 	decision_ratio[35] 	0.012480145223508
scalar tree_4_3_u00_r1_network.node[36].core_layer 	interests[36] 	12411
scalar tree_4_3_u00_r1_network.node[36].core_layer 	data[36] 	8689
scalar tree_4_3_u00_r1_network.node[36].content_store 	p_hit[36] 	0.29989525420998
scalar tree_4_3_u00_r1_network.node[36].content_store 	hits[36] 	3722
scalar tree_4_3_u00_r1_network.node[36].content_store 	misses[36] 	8689
scalar tree_4_3_u00_r1_network.node[36].content_store 	decision_yes[36] 	113
scalar tree_4_3_u00_r1_network.node[36].content_store 	decision_no[36] 	8576
scalar tree_4_3_u00_r1_network.node[36].content_store 	decision_ratio[36] 	0.013004948785821
scalar tree_4_3_u00_r1_network.node[37].core_layer 	interests[37] 	12391
scalar tree_4_3_u00_r1_network.node[37].core_layer 	data[37] 	8717
scalar tree_4_3_u00_r1_network.node[37].content_store 	p_hit[37] 	0.29650552820596
scalar tree_4_3_u00_r1_network.node[37].content_store 	hits[37] 	3674
scalar tree_4_3_u00_r1_network.node[37].content_store 	misses[37] 	8717
scalar tree_4_3_u00_r1_network.node[37].content_store 	decision_yes[37] 	122
scalar tree_4_3_u00_r1_network.node[37].content_store 	decision_no[37] 	8595
scalar tree_4_3_u00_r1_network.node[37].content_store 	decision_ratio[37] 	0.013995640702076
scalar tree_4_3_u00_r1_network.node[38].core_layer 	interests[38] 	12534
scalar tree_4_3_u00_r1_network.node[38].core_layer 	data[38] 	8781
scalar tree_4_3_u00_r1_network.node[38].content_store 	p_hit[38] 	0.29942556247008
scalar tree_4_3_u00_r1_network.node[38].content_store 	hits[38] 	3753
scalar tree_4_3_u00_r1_network.node[38].content_store 	misses[38] 	8781
scalar tree_4_3_u00_r1_network.node[38].content_store 	decision_yes[38] 	115
scalar tree_4_3_u00_r1_network.node[38].content_store 	decision_no[38] 	8666
scalar tree_4_3_u00_r1_network.node[38].content_store 	decision_ratio[38] 	0.013096458262157
scalar tree_4_3_u00_r1_network.node[39].core_layer 	interests[39] 	12379
scalar tree_4_3_u00_r1_network.node[39].core_layer 	data[39] 	8668
scalar tree_4_3_u00_r1_network.node[39].content_store 	p_hit[39] 	0.29986267065191
scalar tree_4_3_u00_r1_network.node[39].content_store 	hits[39] 	3712
scalar tree_4_3_u00_r1_network.node[39].content_store 	misses[39] 	8667
scalar tree_4_3_u00_r1_network.node[39].content_store 	decision_yes[39] 	114
scalar tree_4_3_u00_r1_network.node[39].content_store 	decision_no[39] 	8554
scalar tree_4_3_u00_r1_network.node[39].content_store 	decision_ratio[39] 	0.013151822796493
scalar tree_4_3_u00_r1_network.client[13] 	hdistance[13] 	2.6888160589922
scalar tree_4_3_u00_r1_network.client[13] 	downloads[13] 	12205
scalar tree_4_3_u00_r1_network.client[13] 	avg_time[13] 	0.004171963354
scalar tree_4_3_u00_r1_network.client[14] 	hdistance[14] 	2.720207253886
scalar tree_4_3_u00_r1_network.client[14] 	downloads[14] 	11966
scalar tree_4_3_u00_r1_network.client[14] 	avg_time[14] 	0.004218783566
scalar tree_4_3_u00_r1_network.client[15] 	hdistance[15] 	2.6972342334992
scalar tree_4_3_u00_r1_network.client[15] 	downloads[15] 	12257
scalar tree_4_3_u00_r1_network.client[15] 	avg_time[15] 	0.004188460645
scalar tree_4_3_u00_r1_network.client[16] 	hdistance[16] 	2.6790568200426
scalar tree_4_3_u00_r1_network.client[16] 	downloads[16] 	12214
scalar tree_4_3_u00_r1_network.client[16] 	avg_time[16] 	0.004158831059
scalar tree_4_3_u00_r1_network.client[17] 	hdistance[17] 	2.7094295498204
scalar tree_4_3_u00_r1_network.client[17] 	downloads[17] 	11973
scalar tree_4_3_u00_r1_network.client[17] 	avg_time[17] 	0.004200113956
scalar tree_4_3_u00_r1_network.client[18] 	hdistance[18] 	2.6684130471523
scalar tree_4_3_u00_r1_network.client[18] 	downloads[18] 	11834
scalar tree_4_3_u00_r1_network.client[18] 	avg_time[18] 	0.004147200017
scalar tree_4_3_u00_r1_network.client[19] 	hdistance[19] 	2.6997908824759
scalar tree_4_3_u00_r1_network.client[19] 	downloads[19] 	11955
scalar tree_4_3_u00_r1_network.client[19] 	avg_time[19] 	0.004186027964
scalar tree_4_3_u00_r1_network.client[20] 	hdistance[20] 	2.6944537533512
scalar tree_4_3_u00_r1_network.client[20] 	downloads[20] 	11936
scalar tree_4_3_u00_r1_network.client[20] 	avg_time[20] 	0.00417811367
scalar tree_4_3_u00_r1_network.client[21] 	hdistance[21] 	2.67301212938
scalar tree_4_3_u00_r1_network.client[21] 	downloads[21] 	11872
scalar tree_4_3_u00_r1_network.client[21] 	avg_time[21] 	0.004149255802
scalar tree_4_3_u00_r1_network.client[22] 	hdistance[22] 	2.7032985111458
scalar tree_4_3_u00_r1_network.client[22] 	downloads[22] 	12157
scalar tree_4_3_u00_r1_network.client[22] 	avg_time[22] 	0.004200375366
scalar tree_4_3_u00_r1_network.client[23] 	hdistance[23] 	2.7004519584868
scalar tree_4_3_u00_r1_network.client[23] 	downloads[23] 	11948
scalar tree_4_3_u00_r1_network.client[23] 	avg_time[23] 	0.0041911587
scalar tree_4_3_u00_r1_network.client[24] 	hdistance[24] 	2.6772768935922
scalar tree_4_3_u00_r1_network.client[24] 	downloads[24] 	12001
scalar tree_4_3_u00_r1_network.client[24] 	avg_time[24] 	0.004160339738
scalar tree_4_3_u00_r1_network.client[25] 	hdistance[25] 	2.7012034289482
scalar tree_4_3_u00_r1_network.client[25] 	downloads[25] 	12132
scalar tree_4_3_u00_r1_network.client[25] 	avg_time[25] 	0.004198480336
scalar tree_4_3_u00_r1_network.client[26] 	hdistance[26] 	2.6952222683839
scalar tree_4_3_u00_r1_network.client[26] 	downloads[26] 	12035
scalar tree_4_3_u00_r1_network.client[26] 	avg_time[26] 	0.004180470647
scalar tree_4_3_u00_r1_network.client[27] 	hdistance[27] 	2.6639351116314
scalar tree_4_3_u00_r1_network.client[27] 	downloads[27] 	11959
scalar tree_4_3_u00_r1_network.client[27] 	avg_time[27] 	0.004136296019
scalar tree_4_3_u00_r1_network.client[28] 	hdistance[28] 	2.6716028607488
scalar tree_4_3_u00_r1_network.client[28] 	downloads[28] 	11885
scalar tree_4_3_u00_r1_network.client[28] 	avg_time[28] 	0.004149530297
scalar tree_4_3_u00_r1_network.client[29] 	hdistance[29] 	2.6828821324448
scalar tree_4_3_u00_r1_network.client[29] 	downloads[29] 	12005
scalar tree_4_3_u00_r1_network.client[29] 	avg_time[29] 	0.004175257288
scalar tree_4_3_u00_r1_network.client[30] 	hdistance[30] 	2.7082394189832
scalar tree_4_3_u00_r1_network.client[30] 	downloads[30] 	11979
scalar tree_4_3_u00_r1_network.client[30] 	avg_time[30] 	0.004206692048
scalar tree_4_3_u00_r1_network.client[31] 	hdistance[31] 	2.6964824120603
scalar tree_4_3_u00_r1_network.client[31] 	downloads[31] 	11940
scalar tree_4_3_u00_r1_network.client[31] 	avg_time[31] 	0.004183246608
scalar tree_4_3_u00_r1_network.client[32] 	hdistance[32] 	2.694
scalar tree_4_3_u00_r1_network.client[32] 	downloads[32] 	12000
scalar tree_4_3_u00_r1_network.client[32] 	avg_time[32] 	0.00418899698
scalar tree_4_3_u00_r1_network.client[33] 	hdistance[33] 	2.6879491893699
scalar tree_4_3_u00_r1_network.client[33] 	downloads[33] 	11966
scalar tree_4_3_u00_r1_network.client[33] 	avg_time[33] 	0.004176970944
scalar tree_4_3_u00_r1_network.client[34] 	hdistance[34] 	2.7229673093043
scalar tree_4_3_u00_r1_network.client[34] 	downloads[34] 	11930
scalar tree_4_3_u00_r1_network.client[34] 	avg_time[34] 	0.004239198634
scalar tree_4_3_u00_r1_network.client[35] 	hdistance[35] 	2.6811738373539
scalar tree_4_3_u00_r1_network.client[35] 	downloads[35] 	12063
scalar tree_4_3_u00_r1_network.client[35] 	avg_time[35] 	0.004164798469
scalar tree_4_3_u00_r1_network.client[36] 	hdistance[36] 	2.6860835991271
scalar tree_4_3_u00_r1_network.client[36] 	downloads[36] 	11914
scalar tree_4_3_u00_r1_network.client[36] 	avg_time[36] 	0.004174749422
scalar tree_4_3_u00_r1_network.client[37] 	hdistance[37] 	2.6929558476576
scalar tree_4_3_u00_r1_network.client[37] 	downloads[37] 	11868
scalar tree_4_3_u00_r1_network.client[37] 	avg_time[37] 	0.004181156444
scalar tree_4_3_u00_r1_network.client[38] 	hdistance[38] 	2.6860213262246
scalar tree_4_3_u00_r1_network.client[38] 	downloads[38] 	12004
scalar tree_4_3_u00_r1_network.client[38] 	avg_time[38] 	0.004168940711
scalar tree_4_3_u00_r1_network.client[39] 	hdistance[39] 	2.6874841544832
scalar tree_4_3_u00_r1_network.client[39] 	downloads[39] 	11833
scalar tree_4_3_u00_r1_network.client[39] 	avg_time[39] 	0.004171720156
