version 2
run General-34-20160819-11:07:43-2054
attr a 0.9
attr cd lcd
attr configname General
attr cr lru
attr datetime 20160819-11:07:43
attr experiment General
attr fsize 1
attr inifile hw5115/scenario_A/NRR-LCD.ini
attr iterationvars "$name=tree_4_3, $un=01, $rep=15, $cd=lcd, $cr=lru, $fsize=1, $a=0.9, $sl=nrr, $ttl=1000, $variance=0.05"
attr iterationvars2 "$name=tree_4_3, $un=01, $rep=15, $cd=lcd, $cr=lru, $fsize=1, $a=0.9, $sl=nrr, $ttl=1000, $variance=0.05, $repetition=0"
attr measurement "$name=tree_4_3, $un=01, $rep=15, $cd=lcd, $cr=lru, $fsize=1, $a=0.9, $sl=nrr, $ttl=1000, $variance=0.05"
attr name tree_4_3
attr network networks.${name}_u${un}_r${rep}_network
attr processid 2054
attr rep 15
attr repetition 0
attr replication #0
attr resultdir results
attr runnumber 34
attr seedset 15
attr sl nrr
attr ttl 1000
attr un 01
attr variance 0.05

scalar . 	a 	0.9
scalar . 	fsize 	1
scalar . 	rep 	15
scalar . 	ttl 	1000
scalar . 	un 	01
scalar . 	variance 	0.05
scalar tree_4_3_u01_r15_network.content_distribution 	repo-0 	0
scalar tree_4_3_u01_r15_network.content_distribution 	client-0 	13
scalar tree_4_3_u01_r15_network.content_distribution 	client-1 	14
scalar tree_4_3_u01_r15_network.content_distribution 	client-2 	15
scalar tree_4_3_u01_r15_network.content_distribution 	client-3 	16
scalar tree_4_3_u01_r15_network.content_distribution 	client-4 	17
scalar tree_4_3_u01_r15_network.content_distribution 	client-5 	18
scalar tree_4_3_u01_r15_network.content_distribution 	client-6 	19
scalar tree_4_3_u01_r15_network.content_distribution 	client-7 	20
scalar tree_4_3_u01_r15_network.content_distribution 	client-8 	21
scalar tree_4_3_u01_r15_network.content_distribution 	client-9 	22
scalar tree_4_3_u01_r15_network.content_distribution 	client-10 	23
scalar tree_4_3_u01_r15_network.content_distribution 	client-11 	24
scalar tree_4_3_u01_r15_network.content_distribution 	client-12 	25
scalar tree_4_3_u01_r15_network.content_distribution 	client-13 	26
scalar tree_4_3_u01_r15_network.content_distribution 	client-14 	27
scalar tree_4_3_u01_r15_network.content_distribution 	client-15 	28
scalar tree_4_3_u01_r15_network.content_distribution 	client-16 	29
scalar tree_4_3_u01_r15_network.content_distribution 	client-17 	30
scalar tree_4_3_u01_r15_network.content_distribution 	client-18 	31
scalar tree_4_3_u01_r15_network.content_distribution 	client-19 	32
scalar tree_4_3_u01_r15_network.content_distribution 	client-20 	33
scalar tree_4_3_u01_r15_network.content_distribution 	client-21 	34
scalar tree_4_3_u01_r15_network.content_distribution 	client-22 	35
scalar tree_4_3_u01_r15_network.content_distribution 	client-23 	36
scalar tree_4_3_u01_r15_network.content_distribution 	client-24 	37
scalar tree_4_3_u01_r15_network.content_distribution 	client-25 	38
scalar tree_4_3_u01_r15_network.content_distribution 	client-26 	39
scalar tree_4_3_u01_r15_network.content_distribution 	repo-0_card 	100000
scalar tree_4_3_u01_r15_network.content_distribution 	repo-0_price 	0
scalar tree_4_3_u01_r15_network.statistics 	stabilization_time 	707.4
scalar tree_4_3_u01_r15_network.statistics 	p_hit 	0.20845292083919
scalar tree_4_3_u01_r15_network.statistics 	interests 	25023.875
scalar tree_4_3_u01_r15_network.statistics 	data 	16924.6
scalar tree_4_3_u01_r15_network.statistics 	hdistance 	2.7319763769324
scalar tree_4_3_u01_r15_network.statistics 	avg_time 	0.004179195413
scalar tree_4_3_u01_r15_network.statistics 	downloads 	323977
scalar tree_4_3_u01_r15_network.statistics 	total_cost 	0
scalar tree_4_3_u01_r15_network.statistics 	total_replicas 	100000
scalar tree_4_3_u01_r15_network.statistics 	inner_hit 	0.35767353855366
scalar tree_4_3_u01_r15_network.node[0].core_layer 	interests[0] 	209663
scalar tree_4_3_u01_r15_network.node[0].core_layer 	repo_load[0] 	208099
scalar tree_4_3_u01_r15_network.node[0].core_layer 	data[0] 	0
scalar tree_4_3_u01_r15_network.node[0].core_layer 	repo_int[0] 	208099
scalar tree_4_3_u01_r15_network.node[0].content_store 	p_hit[0] 	0.0074595899133371
scalar tree_4_3_u01_r15_network.node[0].content_store 	hits[0] 	1564
scalar tree_4_3_u01_r15_network.node[0].content_store 	misses[0] 	208099
scalar tree_4_3_u01_r15_network.node[0].content_store 	decision_yes[0] 	208099
scalar tree_4_3_u01_r15_network.node[0].content_store 	decision_no[0] 	0
scalar tree_4_3_u01_r15_network.node[0].content_store 	decision_ratio[0] 	1
scalar tree_4_3_u01_r15_network.node[1].core_layer 	interests[1] 	72808
scalar tree_4_3_u01_r15_network.node[1].core_layer 	data[1] 	71583
scalar tree_4_3_u01_r15_network.node[1].content_store 	p_hit[1] 	0.016811339413251
scalar tree_4_3_u01_r15_network.node[1].content_store 	hits[1] 	1224
scalar tree_4_3_u01_r15_network.node[1].content_store 	misses[1] 	71584
scalar tree_4_3_u01_r15_network.node[1].content_store 	decision_yes[1] 	1078
scalar tree_4_3_u01_r15_network.node[1].content_store 	decision_no[1] 	70505
scalar tree_4_3_u01_r15_network.node[1].content_store 	decision_ratio[1] 	0.015059441487504
scalar tree_4_3_u01_r15_network.node[2].core_layer 	interests[2] 	97250
scalar tree_4_3_u01_r15_network.node[2].core_layer 	data[2] 	94775
scalar tree_4_3_u01_r15_network.node[2].content_store 	p_hit[2] 	0.025470437017995
scalar tree_4_3_u01_r15_network.node[2].content_store 	hits[2] 	2477
scalar tree_4_3_u01_r15_network.node[2].content_store 	misses[2] 	94773
scalar tree_4_3_u01_r15_network.node[2].content_store 	decision_yes[2] 	2767
scalar tree_4_3_u01_r15_network.node[2].content_store 	decision_no[2] 	92007
scalar tree_4_3_u01_r15_network.node[2].content_store 	decision_ratio[2] 	0.029195770992044
scalar tree_4_3_u01_r15_network.node[3].core_layer 	interests[3] 	49550
scalar tree_4_3_u01_r15_network.node[3].core_layer 	data[3] 	47957
scalar tree_4_3_u01_r15_network.node[3].content_store 	p_hit[3] 	0.032108980827447
scalar tree_4_3_u01_r15_network.node[3].content_store 	hits[3] 	1591
scalar tree_4_3_u01_r15_network.node[3].content_store 	misses[3] 	47959
scalar tree_4_3_u01_r15_network.node[3].content_store 	decision_yes[3] 	1370
scalar tree_4_3_u01_r15_network.node[3].content_store 	decision_no[3] 	46587
scalar tree_4_3_u01_r15_network.node[3].content_store 	decision_ratio[3] 	0.028567258168776
scalar tree_4_3_u01_r15_network.node[4].core_layer 	interests[4] 	25748
scalar tree_4_3_u01_r15_network.node[4].core_layer 	data[4] 	24619
scalar tree_4_3_u01_r15_network.node[4].content_store 	p_hit[4] 	0.043848065869194
scalar tree_4_3_u01_r15_network.node[4].content_store 	hits[4] 	1129
scalar tree_4_3_u01_r15_network.node[4].content_store 	misses[4] 	24619
scalar tree_4_3_u01_r15_network.node[4].content_store 	decision_yes[4] 	829
scalar tree_4_3_u01_r15_network.node[4].content_store 	decision_no[4] 	23790
scalar tree_4_3_u01_r15_network.node[4].content_store 	decision_ratio[4] 	0.033673179251797
scalar tree_4_3_u01_r15_network.node[5].core_layer 	interests[5] 	35416
scalar tree_4_3_u01_r15_network.node[5].core_layer 	data[5] 	33353
scalar tree_4_3_u01_r15_network.node[5].content_store 	p_hit[5] 	0.058278744070477
scalar tree_4_3_u01_r15_network.node[5].content_store 	hits[5] 	2064
scalar tree_4_3_u01_r15_network.node[5].content_store 	misses[5] 	33352
scalar tree_4_3_u01_r15_network.node[5].content_store 	decision_yes[5] 	1757
scalar tree_4_3_u01_r15_network.node[5].content_store 	decision_no[5] 	31596
scalar tree_4_3_u01_r15_network.node[5].content_store 	decision_ratio[5] 	0.052678919437532
scalar tree_4_3_u01_r15_network.node[6].core_layer 	interests[6] 	18120
scalar tree_4_3_u01_r15_network.node[6].core_layer 	data[6] 	16987
scalar tree_4_3_u01_r15_network.node[6].content_store 	p_hit[6] 	0.062472406181015
scalar tree_4_3_u01_r15_network.node[6].content_store 	hits[6] 	1132
scalar tree_4_3_u01_r15_network.node[6].content_store 	misses[6] 	16988
scalar tree_4_3_u01_r15_network.node[6].content_store 	decision_yes[6] 	788
scalar tree_4_3_u01_r15_network.node[6].content_store 	decision_no[6] 	16199
scalar tree_4_3_u01_r15_network.node[6].content_store 	decision_ratio[6] 	0.046388414670042
scalar tree_4_3_u01_r15_network.node[7].core_layer 	interests[7] 	26770
scalar tree_4_3_u01_r15_network.node[7].core_layer 	data[7] 	25118
scalar tree_4_3_u01_r15_network.node[7].content_store 	p_hit[7] 	0.061710870377288
scalar tree_4_3_u01_r15_network.node[7].content_store 	hits[7] 	1652
scalar tree_4_3_u01_r15_network.node[7].content_store 	misses[7] 	25118
scalar tree_4_3_u01_r15_network.node[7].content_store 	decision_yes[7] 	1403
scalar tree_4_3_u01_r15_network.node[7].content_store 	decision_no[7] 	23715
scalar tree_4_3_u01_r15_network.node[7].content_store 	decision_ratio[7] 	0.055856357990286
scalar tree_4_3_u01_r15_network.node[8].core_layer 	interests[8] 	27266
scalar tree_4_3_u01_r15_network.node[8].core_layer 	data[8] 	25582
scalar tree_4_3_u01_r15_network.node[8].content_store 	p_hit[8] 	0.061725225555637
scalar tree_4_3_u01_r15_network.node[8].content_store 	hits[8] 	1683
scalar tree_4_3_u01_r15_network.node[8].content_store 	misses[8] 	25583
scalar tree_4_3_u01_r15_network.node[8].content_store 	decision_yes[8] 	1418
scalar tree_4_3_u01_r15_network.node[8].content_store 	decision_no[8] 	24164
scalar tree_4_3_u01_r15_network.node[8].content_store 	decision_ratio[8] 	0.055429598936752
scalar tree_4_3_u01_r15_network.node[9].core_layer 	interests[9] 	26891
scalar tree_4_3_u01_r15_network.node[9].core_layer 	data[9] 	25211
scalar tree_4_3_u01_r15_network.node[9].content_store 	p_hit[9] 	0.062400059499461
scalar tree_4_3_u01_r15_network.node[9].content_store 	hits[9] 	1678
scalar tree_4_3_u01_r15_network.node[9].content_store 	misses[9] 	25213
scalar tree_4_3_u01_r15_network.node[9].content_store 	decision_yes[9] 	1406
scalar tree_4_3_u01_r15_network.node[9].content_store 	decision_no[9] 	23805
scalar tree_4_3_u01_r15_network.node[9].content_store 	decision_ratio[9] 	0.055769307048511
scalar tree_4_3_u01_r15_network.node[10].core_layer 	interests[10] 	26488
scalar tree_4_3_u01_r15_network.node[10].core_layer 	data[10] 	25085
scalar tree_4_3_u01_r15_network.node[10].content_store 	p_hit[10] 	0.052967381455754
scalar tree_4_3_u01_r15_network.node[10].content_store 	hits[10] 	1403
scalar tree_4_3_u01_r15_network.node[10].content_store 	misses[10] 	25085
scalar tree_4_3_u01_r15_network.node[10].content_store 	decision_yes[10] 	1210
scalar tree_4_3_u01_r15_network.node[10].content_store 	decision_no[10] 	23875
scalar tree_4_3_u01_r15_network.node[10].content_store 	decision_ratio[10] 	0.048235997608132
scalar tree_4_3_u01_r15_network.node[11].core_layer 	interests[11] 	27787
scalar tree_4_3_u01_r15_network.node[11].core_layer 	data[11] 	25422
scalar tree_4_3_u01_r15_network.node[11].content_store 	p_hit[11] 	0.085147730953323
scalar tree_4_3_u01_r15_network.node[11].content_store 	hits[11] 	2366
scalar tree_4_3_u01_r15_network.node[11].content_store 	misses[11] 	25421
scalar tree_4_3_u01_r15_network.node[11].content_store 	decision_yes[11] 	2108
scalar tree_4_3_u01_r15_network.node[11].content_store 	decision_no[11] 	23314
scalar tree_4_3_u01_r15_network.node[11].content_store 	decision_ratio[11] 	0.082920305247423
scalar tree_4_3_u01_r15_network.node[12].core_layer 	interests[12] 	26417
scalar tree_4_3_u01_r15_network.node[12].core_layer 	data[12] 	25039
scalar tree_4_3_u01_r15_network.node[12].content_store 	p_hit[12] 	0.052163379641897
scalar tree_4_3_u01_r15_network.node[12].content_store 	hits[12] 	1378
scalar tree_4_3_u01_r15_network.node[12].content_store 	misses[12] 	25039
scalar tree_4_3_u01_r15_network.node[12].content_store 	decision_yes[12] 	1178
scalar tree_4_3_u01_r15_network.node[12].content_store 	decision_no[12] 	23861
scalar tree_4_3_u01_r15_network.node[12].content_store 	decision_ratio[12] 	0.047046607292624
scalar tree_4_3_u01_r15_network.node[13].core_layer 	interests[13] 	12167
scalar tree_4_3_u01_r15_network.node[13].core_layer 	data[13] 	8750
scalar tree_4_3_u01_r15_network.node[13].content_store 	p_hit[13] 	0.28084162077751
scalar tree_4_3_u01_r15_network.node[13].content_store 	hits[13] 	3417
scalar tree_4_3_u01_r15_network.node[13].content_store 	misses[13] 	8750
scalar tree_4_3_u01_r15_network.node[13].content_store 	decision_yes[13] 	344
scalar tree_4_3_u01_r15_network.node[13].content_store 	decision_no[13] 	8406
scalar tree_4_3_u01_r15_network.node[13].content_store 	decision_ratio[13] 	0.039314285714286
scalar tree_4_3_u01_r15_network.node[14].core_layer 	interests[14] 	12375
scalar tree_4_3_u01_r15_network.node[14].core_layer 	data[14] 	8672
scalar tree_4_3_u01_r15_network.node[14].content_store 	p_hit[14] 	0.29923232323232
scalar tree_4_3_u01_r15_network.node[14].content_store 	hits[14] 	3703
scalar tree_4_3_u01_r15_network.node[14].content_store 	misses[14] 	8672
scalar tree_4_3_u01_r15_network.node[14].content_store 	decision_yes[14] 	580
scalar tree_4_3_u01_r15_network.node[14].content_store 	decision_no[14] 	8092
scalar tree_4_3_u01_r15_network.node[14].content_store 	decision_ratio[14] 	0.066881918819188
scalar tree_4_3_u01_r15_network.node[15].core_layer 	interests[15] 	12067
scalar tree_4_3_u01_r15_network.node[15].core_layer 	data[15] 	8562
scalar tree_4_3_u01_r15_network.node[15].content_store 	p_hit[15] 	0.29037871881992
scalar tree_4_3_u01_r15_network.node[15].content_store 	hits[15] 	3504
scalar tree_4_3_u01_r15_network.node[15].content_store 	misses[15] 	8563
scalar tree_4_3_u01_r15_network.node[15].content_store 	decision_yes[15] 	344
scalar tree_4_3_u01_r15_network.node[15].content_store 	decision_no[15] 	8218
scalar tree_4_3_u01_r15_network.node[15].content_store 	decision_ratio[15] 	0.04017752861481
scalar tree_4_3_u01_r15_network.node[16].core_layer 	interests[16] 	12238
scalar tree_4_3_u01_r15_network.node[16].core_layer 	data[16] 	8814
scalar tree_4_3_u01_r15_network.node[16].content_store 	p_hit[16] 	0.27986599117503
scalar tree_4_3_u01_r15_network.node[16].content_store 	hits[16] 	3425
scalar tree_4_3_u01_r15_network.node[16].content_store 	misses[16] 	8813
scalar tree_4_3_u01_r15_network.node[16].content_store 	decision_yes[16] 	389
scalar tree_4_3_u01_r15_network.node[16].content_store 	decision_no[16] 	8425
scalar tree_4_3_u01_r15_network.node[16].content_store 	decision_ratio[16] 	0.044134331744951
scalar tree_4_3_u01_r15_network.node[17].core_layer 	interests[17] 	12234
scalar tree_4_3_u01_r15_network.node[17].core_layer 	data[17] 	8671
scalar tree_4_3_u01_r15_network.node[17].content_store 	p_hit[17] 	0.29123753473925
scalar tree_4_3_u01_r15_network.node[17].content_store 	hits[17] 	3563
scalar tree_4_3_u01_r15_network.node[17].content_store 	misses[17] 	8671
scalar tree_4_3_u01_r15_network.node[17].content_store 	decision_yes[17] 	410
scalar tree_4_3_u01_r15_network.node[17].content_store 	decision_no[17] 	8261
scalar tree_4_3_u01_r15_network.node[17].content_store 	decision_ratio[17] 	0.047284050282551
scalar tree_4_3_u01_r15_network.node[18].core_layer 	interests[18] 	12252
scalar tree_4_3_u01_r15_network.node[18].core_layer 	data[18] 	8738
scalar tree_4_3_u01_r15_network.node[18].content_store 	p_hit[18] 	0.28681031668299
scalar tree_4_3_u01_r15_network.node[18].content_store 	hits[18] 	3514
scalar tree_4_3_u01_r15_network.node[18].content_store 	misses[18] 	8738
scalar tree_4_3_u01_r15_network.node[18].content_store 	decision_yes[18] 	425
scalar tree_4_3_u01_r15_network.node[18].content_store 	decision_no[18] 	8313
scalar tree_4_3_u01_r15_network.node[18].content_store 	decision_ratio[18] 	0.04863813229572
scalar tree_4_3_u01_r15_network.node[19].core_layer 	interests[19] 	12248
scalar tree_4_3_u01_r15_network.node[19].core_layer 	data[19] 	8767
scalar tree_4_3_u01_r15_network.node[19].content_store 	p_hit[19] 	0.28420966688439
scalar tree_4_3_u01_r15_network.node[19].content_store 	hits[19] 	3481
scalar tree_4_3_u01_r15_network.node[19].content_store 	misses[19] 	8767
scalar tree_4_3_u01_r15_network.node[19].content_store 	decision_yes[19] 	329
scalar tree_4_3_u01_r15_network.node[19].content_store 	decision_no[19] 	8438
scalar tree_4_3_u01_r15_network.node[19].content_store 	decision_ratio[19] 	0.037527090224706
scalar tree_4_3_u01_r15_network.node[20].core_layer 	interests[20] 	12410
scalar tree_4_3_u01_r15_network.node[20].core_layer 	data[20] 	8769
scalar tree_4_3_u01_r15_network.node[20].content_store 	p_hit[20] 	0.29339242546334
scalar tree_4_3_u01_r15_network.node[20].content_store 	hits[20] 	3641
scalar tree_4_3_u01_r15_network.node[20].content_store 	misses[20] 	8769
scalar tree_4_3_u01_r15_network.node[20].content_store 	decision_yes[20] 	599
scalar tree_4_3_u01_r15_network.node[20].content_store 	decision_no[20] 	8170
scalar tree_4_3_u01_r15_network.node[20].content_store 	decision_ratio[20] 	0.068308815144258
scalar tree_4_3_u01_r15_network.node[21].core_layer 	interests[21] 	12149
scalar tree_4_3_u01_r15_network.node[21].core_layer 	data[21] 	8806
scalar tree_4_3_u01_r15_network.node[21].content_store 	p_hit[21] 	0.27516668038522
scalar tree_4_3_u01_r15_network.node[21].content_store 	hits[21] 	3343
scalar tree_4_3_u01_r15_network.node[21].content_store 	misses[21] 	8806
scalar tree_4_3_u01_r15_network.node[21].content_store 	decision_yes[21] 	344
scalar tree_4_3_u01_r15_network.node[21].content_store 	decision_no[21] 	8462
scalar tree_4_3_u01_r15_network.node[21].content_store 	decision_ratio[21] 	0.039064274358392
scalar tree_4_3_u01_r15_network.node[22].core_layer 	interests[22] 	12264
scalar tree_4_3_u01_r15_network.node[22].core_layer 	data[22] 	8854
scalar tree_4_3_u01_r15_network.node[22].content_store 	p_hit[22] 	0.27804957599478
scalar tree_4_3_u01_r15_network.node[22].content_store 	hits[22] 	3410
scalar tree_4_3_u01_r15_network.node[22].content_store 	misses[22] 	8854
scalar tree_4_3_u01_r15_network.node[22].content_store 	decision_yes[22] 	397
scalar tree_4_3_u01_r15_network.node[22].content_store 	decision_no[22] 	8457
scalar tree_4_3_u01_r15_network.node[22].content_store 	decision_ratio[22] 	0.044838491077479
scalar tree_4_3_u01_r15_network.node[23].core_layer 	interests[23] 	12219
scalar tree_4_3_u01_r15_network.node[23].core_layer 	data[23] 	8689
scalar tree_4_3_u01_r15_network.node[23].content_store 	p_hit[23] 	0.28889434487274
scalar tree_4_3_u01_r15_network.node[23].content_store 	hits[23] 	3530
scalar tree_4_3_u01_r15_network.node[23].content_store 	misses[23] 	8689
scalar tree_4_3_u01_r15_network.node[23].content_store 	decision_yes[23] 	393
scalar tree_4_3_u01_r15_network.node[23].content_store 	decision_no[23] 	8296
scalar tree_4_3_u01_r15_network.node[23].content_store 	decision_ratio[23] 	0.045229600644493
scalar tree_4_3_u01_r15_network.node[24].core_layer 	interests[24] 	12291
scalar tree_4_3_u01_r15_network.node[24].core_layer 	data[24] 	8655
scalar tree_4_3_u01_r15_network.node[24].content_store 	p_hit[24] 	0.29582621430315
scalar tree_4_3_u01_r15_network.node[24].content_store 	hits[24] 	3636
scalar tree_4_3_u01_r15_network.node[24].content_store 	misses[24] 	8655
scalar tree_4_3_u01_r15_network.node[24].content_store 	decision_yes[24] 	396
scalar tree_4_3_u01_r15_network.node[24].content_store 	decision_no[24] 	8259
scalar tree_4_3_u01_r15_network.node[24].content_store 	decision_ratio[24] 	0.045753899480069
scalar tree_4_3_u01_r15_network.node[25].core_layer 	interests[25] 	12259
scalar tree_4_3_u01_r15_network.node[25].core_layer 	data[25] 	8818
scalar tree_4_3_u01_r15_network.node[25].content_store 	p_hit[25] 	0.28069173668325
scalar tree_4_3_u01_r15_network.node[25].content_store 	hits[25] 	3441
scalar tree_4_3_u01_r15_network.node[25].content_store 	misses[25] 	8818
scalar tree_4_3_u01_r15_network.node[25].content_store 	decision_yes[25] 	406
scalar tree_4_3_u01_r15_network.node[25].content_store 	decision_no[25] 	8412
scalar tree_4_3_u01_r15_network.node[25].content_store 	decision_ratio[25] 	0.046042186436834
scalar tree_4_3_u01_r15_network.node[26].core_layer 	interests[26] 	12367
scalar tree_4_3_u01_r15_network.node[26].core_layer 	data[26] 	8866
scalar tree_4_3_u01_r15_network.node[26].content_store 	p_hit[26] 	0.2830920999434
scalar tree_4_3_u01_r15_network.node[26].content_store 	hits[26] 	3501
scalar tree_4_3_u01_r15_network.node[26].content_store 	misses[26] 	8866
scalar tree_4_3_u01_r15_network.node[26].content_store 	decision_yes[26] 	367
scalar tree_4_3_u01_r15_network.node[26].content_store 	decision_no[26] 	8499
scalar tree_4_3_u01_r15_network.node[26].content_store 	decision_ratio[26] 	0.041394089781187
scalar tree_4_3_u01_r15_network.node[27].core_layer 	interests[27] 	12368
scalar tree_4_3_u01_r15_network.node[27].core_layer 	data[27] 	8994
scalar tree_4_3_u01_r15_network.node[27].content_store 	p_hit[27] 	0.27280077619664
scalar tree_4_3_u01_r15_network.node[27].content_store 	hits[27] 	3374
scalar tree_4_3_u01_r15_network.node[27].content_store 	misses[27] 	8994
scalar tree_4_3_u01_r15_network.node[27].content_store 	decision_yes[27] 	418
scalar tree_4_3_u01_r15_network.node[27].content_store 	decision_no[27] 	8576
scalar tree_4_3_u01_r15_network.node[27].content_store 	decision_ratio[27] 	0.046475428063153
scalar tree_4_3_u01_r15_network.node[28].core_layer 	interests[28] 	12412
scalar tree_4_3_u01_r15_network.node[28].core_layer 	data[28] 	8787
scalar tree_4_3_u01_r15_network.node[28].content_store 	p_hit[28] 	0.29213664195939
scalar tree_4_3_u01_r15_network.node[28].content_store 	hits[28] 	3626
scalar tree_4_3_u01_r15_network.node[28].content_store 	misses[28] 	8786
scalar tree_4_3_u01_r15_network.node[28].content_store 	decision_yes[28] 	402
scalar tree_4_3_u01_r15_network.node[28].content_store 	decision_no[28] 	8385
scalar tree_4_3_u01_r15_network.node[28].content_store 	decision_ratio[28] 	0.04574940252646
scalar tree_4_3_u01_r15_network.node[29].core_layer 	interests[29] 	12278
scalar tree_4_3_u01_r15_network.node[29].core_layer 	data[29] 	8753
scalar tree_4_3_u01_r15_network.node[29].content_store 	p_hit[29] 	0.28701742954879
scalar tree_4_3_u01_r15_network.node[29].content_store 	hits[29] 	3524
scalar tree_4_3_u01_r15_network.node[29].content_store 	misses[29] 	8754
scalar tree_4_3_u01_r15_network.node[29].content_store 	decision_yes[29] 	375
scalar tree_4_3_u01_r15_network.node[29].content_store 	decision_no[29] 	8378
scalar tree_4_3_u01_r15_network.node[29].content_store 	decision_ratio[29] 	0.042842454015766
scalar tree_4_3_u01_r15_network.node[30].core_layer 	interests[30] 	12239
scalar tree_4_3_u01_r15_network.node[30].core_layer 	data[30] 	8760
scalar tree_4_3_u01_r15_network.node[30].content_store 	p_hit[30] 	0.2842552496119
scalar tree_4_3_u01_r15_network.node[30].content_store 	hits[30] 	3479
scalar tree_4_3_u01_r15_network.node[30].content_store 	misses[30] 	8760
scalar tree_4_3_u01_r15_network.node[30].content_store 	decision_yes[30] 	408
scalar tree_4_3_u01_r15_network.node[30].content_store 	decision_no[30] 	8352
scalar tree_4_3_u01_r15_network.node[30].content_store 	decision_ratio[30] 	0.046575342465753
scalar tree_4_3_u01_r15_network.node[31].core_layer 	interests[31] 	12128
scalar tree_4_3_u01_r15_network.node[31].core_layer 	data[31] 	8660
scalar tree_4_3_u01_r15_network.node[31].content_store 	p_hit[31] 	0.28594986807388
scalar tree_4_3_u01_r15_network.node[31].content_store 	hits[31] 	3468
scalar tree_4_3_u01_r15_network.node[31].content_store 	misses[31] 	8660
scalar tree_4_3_u01_r15_network.node[31].content_store 	decision_yes[31] 	357
scalar tree_4_3_u01_r15_network.node[31].content_store 	decision_no[31] 	8303
scalar tree_4_3_u01_r15_network.node[31].content_store 	decision_ratio[31] 	0.041224018475751
scalar tree_4_3_u01_r15_network.node[32].core_layer 	interests[32] 	12167
scalar tree_4_3_u01_r15_network.node[32].core_layer 	data[32] 	8666
scalar tree_4_3_u01_r15_network.node[32].content_store 	p_hit[32] 	0.28774554121805
scalar tree_4_3_u01_r15_network.node[32].content_store 	hits[32] 	3501
scalar tree_4_3_u01_r15_network.node[32].content_store 	misses[32] 	8666
scalar tree_4_3_u01_r15_network.node[32].content_store 	decision_yes[32] 	373
scalar tree_4_3_u01_r15_network.node[32].content_store 	decision_no[32] 	8293
scalar tree_4_3_u01_r15_network.node[32].content_store 	decision_ratio[32] 	0.043041772444034
scalar tree_4_3_u01_r15_network.node[33].core_layer 	interests[33] 	12357
scalar tree_4_3_u01_r15_network.node[33].core_layer 	data[33] 	8803
scalar tree_4_3_u01_r15_network.node[33].content_store 	p_hit[33] 	0.28761026139031
scalar tree_4_3_u01_r15_network.node[33].content_store 	hits[33] 	3554
scalar tree_4_3_u01_r15_network.node[33].content_store 	misses[33] 	8803
scalar tree_4_3_u01_r15_network.node[33].content_store 	decision_yes[33] 	404
scalar tree_4_3_u01_r15_network.node[33].content_store 	decision_no[33] 	8399
scalar tree_4_3_u01_r15_network.node[33].content_store 	decision_ratio[33] 	0.045893445416335
scalar tree_4_3_u01_r15_network.node[34].core_layer 	interests[34] 	12417
scalar tree_4_3_u01_r15_network.node[34].core_layer 	data[34] 	8910
scalar tree_4_3_u01_r15_network.node[34].content_store 	p_hit[34] 	0.28243537086253
scalar tree_4_3_u01_r15_network.node[34].content_store 	hits[34] 	3507
scalar tree_4_3_u01_r15_network.node[34].content_store 	misses[34] 	8910
scalar tree_4_3_u01_r15_network.node[34].content_store 	decision_yes[34] 	417
scalar tree_4_3_u01_r15_network.node[34].content_store 	decision_no[34] 	8493
scalar tree_4_3_u01_r15_network.node[34].content_store 	decision_ratio[34] 	0.046801346801347
scalar tree_4_3_u01_r15_network.node[35].core_layer 	interests[35] 	12245
scalar tree_4_3_u01_r15_network.node[35].core_layer 	data[35] 	8694
scalar tree_4_3_u01_r15_network.node[35].content_store 	p_hit[35] 	0.29007758268681
scalar tree_4_3_u01_r15_network.node[35].content_store 	hits[35] 	3552
scalar tree_4_3_u01_r15_network.node[35].content_store 	misses[35] 	8693
scalar tree_4_3_u01_r15_network.node[35].content_store 	decision_yes[35] 	427
scalar tree_4_3_u01_r15_network.node[35].content_store 	decision_no[35] 	8267
scalar tree_4_3_u01_r15_network.node[35].content_store 	decision_ratio[35] 	0.049114331723027
scalar tree_4_3_u01_r15_network.node[36].core_layer 	interests[36] 	12336
scalar tree_4_3_u01_r15_network.node[36].core_layer 	data[36] 	8711
scalar tree_4_3_u01_r15_network.node[36].content_store 	p_hit[36] 	0.29385538261997
scalar tree_4_3_u01_r15_network.node[36].content_store 	hits[36] 	3625
scalar tree_4_3_u01_r15_network.node[36].content_store 	misses[36] 	8711
scalar tree_4_3_u01_r15_network.node[36].content_store 	decision_yes[36] 	410
scalar tree_4_3_u01_r15_network.node[36].content_store 	decision_no[36] 	8301
scalar tree_4_3_u01_r15_network.node[36].content_store 	decision_ratio[36] 	0.047066926874067
scalar tree_4_3_u01_r15_network.node[37].core_layer 	interests[37] 	12176
scalar tree_4_3_u01_r15_network.node[37].core_layer 	data[37] 	8779
scalar tree_4_3_u01_r15_network.node[37].content_store 	p_hit[37] 	0.2789914586071
scalar tree_4_3_u01_r15_network.node[37].content_store 	hits[37] 	3397
scalar tree_4_3_u01_r15_network.node[37].content_store 	misses[37] 	8779
scalar tree_4_3_u01_r15_network.node[37].content_store 	decision_yes[37] 	396
scalar tree_4_3_u01_r15_network.node[37].content_store 	decision_no[37] 	8383
scalar tree_4_3_u01_r15_network.node[37].content_store 	decision_ratio[37] 	0.045107643239549
scalar tree_4_3_u01_r15_network.node[38].core_layer 	interests[38] 	12024
scalar tree_4_3_u01_r15_network.node[38].core_layer 	data[38] 	8595
scalar tree_4_3_u01_r15_network.node[38].content_store 	p_hit[38] 	0.28517964071856
scalar tree_4_3_u01_r15_network.node[38].content_store 	hits[38] 	3429
scalar tree_4_3_u01_r15_network.node[38].content_store 	misses[38] 	8595
scalar tree_4_3_u01_r15_network.node[38].content_store 	decision_yes[38] 	351
scalar tree_4_3_u01_r15_network.node[38].content_store 	decision_no[38] 	8244
scalar tree_4_3_u01_r15_network.node[38].content_store 	decision_ratio[38] 	0.040837696335079
scalar tree_4_3_u01_r15_network.node[39].core_layer 	interests[39] 	12094
scalar tree_4_3_u01_r15_network.node[39].core_layer 	data[39] 	8710
scalar tree_4_3_u01_r15_network.node[39].content_store 	p_hit[39] 	0.27980816934017
scalar tree_4_3_u01_r15_network.node[39].content_store 	hits[39] 	3384
scalar tree_4_3_u01_r15_network.node[39].content_store 	misses[39] 	8710
scalar tree_4_3_u01_r15_network.node[39].content_store 	decision_yes[39] 	373
scalar tree_4_3_u01_r15_network.node[39].content_store 	decision_no[39] 	8337
scalar tree_4_3_u01_r15_network.node[39].content_store 	decision_ratio[39] 	0.042824339839265
scalar tree_4_3_u01_r15_network.client[13] 	hdistance[13] 	2.7523872789172
scalar tree_4_3_u01_r15_network.client[13] 	downloads[13] 	12043
scalar tree_4_3_u01_r15_network.client[13] 	avg_time[13] 	0.004194134671
scalar tree_4_3_u01_r15_network.client[14] 	hdistance[14] 	2.723995620315
scalar tree_4_3_u01_r15_network.client[14] 	downloads[14] 	11873
scalar tree_4_3_u01_r15_network.client[14] 	avg_time[14] 	0.004143010608
scalar tree_4_3_u01_r15_network.client[15] 	hdistance[15] 	2.7136040184177
scalar tree_4_3_u01_r15_network.client[15] 	downloads[15] 	11945
scalar tree_4_3_u01_r15_network.client[15] 	avg_time[15] 	0.004136288341
scalar tree_4_3_u01_r15_network.client[16] 	hdistance[16] 	2.7525370154716
scalar tree_4_3_u01_r15_network.client[16] 	downloads[16] 	12022
scalar tree_4_3_u01_r15_network.client[16] 	avg_time[16] 	0.004195971044
scalar tree_4_3_u01_r15_network.client[17] 	hdistance[17] 	2.7101714666223
scalar tree_4_3_u01_r15_network.client[17] 	downloads[17] 	12014
scalar tree_4_3_u01_r15_network.client[17] 	avg_time[17] 	0.004128680183
scalar tree_4_3_u01_r15_network.client[18] 	hdistance[18] 	2.7219723471597
scalar tree_4_3_u01_r15_network.client[18] 	downloads[18] 	12006
scalar tree_4_3_u01_r15_network.client[18] 	avg_time[18] 	0.004153420287
scalar tree_4_3_u01_r15_network.client[19] 	hdistance[19] 	2.7423241994057
scalar tree_4_3_u01_r15_network.client[19] 	downloads[19] 	12116
scalar tree_4_3_u01_r15_network.client[19] 	avg_time[19] 	0.004182400408
scalar tree_4_3_u01_r15_network.client[20] 	hdistance[20] 	2.7327362517787
scalar tree_4_3_u01_r15_network.client[20] 	downloads[20] 	11947
scalar tree_4_3_u01_r15_network.client[20] 	avg_time[20] 	0.004158084882
scalar tree_4_3_u01_r15_network.client[21] 	hdistance[21] 	2.7709580838323
scalar tree_4_3_u01_r15_network.client[21] 	downloads[21] 	12024
scalar tree_4_3_u01_r15_network.client[21] 	avg_time[21] 	0.004225760043
scalar tree_4_3_u01_r15_network.client[22] 	hdistance[22] 	2.7558603491272
scalar tree_4_3_u01_r15_network.client[22] 	downloads[22] 	12030
scalar tree_4_3_u01_r15_network.client[22] 	avg_time[22] 	0.004220445864
scalar tree_4_3_u01_r15_network.client[23] 	hdistance[23] 	2.7189958158996
scalar tree_4_3_u01_r15_network.client[23] 	downloads[23] 	11950
scalar tree_4_3_u01_r15_network.client[23] 	avg_time[23] 	0.004170206214
scalar tree_4_3_u01_r15_network.client[24] 	hdistance[24] 	2.6807008802524
scalar tree_4_3_u01_r15_network.client[24] 	downloads[24] 	12042
scalar tree_4_3_u01_r15_network.client[24] 	avg_time[24] 	0.00410994549
scalar tree_4_3_u01_r15_network.client[25] 	hdistance[25] 	2.737030560413
scalar tree_4_3_u01_r15_network.client[25] 	downloads[25] 	12009
scalar tree_4_3_u01_r15_network.client[25] 	avg_time[25] 	0.004202221371
scalar tree_4_3_u01_r15_network.client[26] 	hdistance[26] 	2.7480783535829
scalar tree_4_3_u01_r15_network.client[26] 	downloads[26] 	12099
scalar tree_4_3_u01_r15_network.client[26] 	avg_time[26] 	0.004214725449
scalar tree_4_3_u01_r15_network.client[27] 	hdistance[27] 	2.7732077964982
scalar tree_4_3_u01_r15_network.client[27] 	downloads[27] 	12108
scalar tree_4_3_u01_r15_network.client[27] 	avg_time[27] 	0.004253383152
scalar tree_4_3_u01_r15_network.client[28] 	hdistance[28] 	2.6996050682903
scalar tree_4_3_u01_r15_network.client[28] 	downloads[28] 	12154
scalar tree_4_3_u01_r15_network.client[28] 	avg_time[28] 	0.004140855947
scalar tree_4_3_u01_r15_network.client[29] 	hdistance[29] 	2.7235421166307
scalar tree_4_3_u01_r15_network.client[29] 	downloads[29] 	12038
scalar tree_4_3_u01_r15_network.client[29] 	avg_time[29] 	0.004176438267
scalar tree_4_3_u01_r15_network.client[30] 	hdistance[30] 	2.7271665693552
scalar tree_4_3_u01_r15_network.client[30] 	downloads[30] 	11989
scalar tree_4_3_u01_r15_network.client[30] 	avg_time[30] 	0.004181904543
scalar tree_4_3_u01_r15_network.client[31] 	hdistance[31] 	2.7397766395163
scalar tree_4_3_u01_r15_network.client[31] 	downloads[31] 	11909
scalar tree_4_3_u01_r15_network.client[31] 	avg_time[31] 	0.004190609155
scalar tree_4_3_u01_r15_network.client[32] 	hdistance[32] 	2.7271204889894
scalar tree_4_3_u01_r15_network.client[32] 	downloads[32] 	11943
scalar tree_4_3_u01_r15_network.client[32] 	avg_time[32] 	0.004173655221
scalar tree_4_3_u01_r15_network.client[33] 	hdistance[33] 	2.7219524240678
scalar tree_4_3_u01_r15_network.client[33] 	downloads[33] 	12149
scalar tree_4_3_u01_r15_network.client[33] 	avg_time[33] 	0.00415955883
scalar tree_4_3_u01_r15_network.client[34] 	hdistance[34] 	2.7468638365041
scalar tree_4_3_u01_r15_network.client[34] 	downloads[34] 	12037
scalar tree_4_3_u01_r15_network.client[34] 	avg_time[34] 	0.004218656099
scalar tree_4_3_u01_r15_network.client[35] 	hdistance[35] 	2.6926374180535
scalar tree_4_3_u01_r15_network.client[35] 	downloads[35] 	11898
scalar tree_4_3_u01_r15_network.client[35] 	avg_time[35] 	0.004143886757
scalar tree_4_3_u01_r15_network.client[36] 	hdistance[36] 	2.6857166694477
scalar tree_4_3_u01_r15_network.client[36] 	downloads[36] 	11986
scalar tree_4_3_u01_r15_network.client[36] 	avg_time[36] 	0.004129481388
scalar tree_4_3_u01_r15_network.client[37] 	hdistance[37] 	2.7516279846385
scalar tree_4_3_u01_r15_network.client[37] 	downloads[37] 	11978
scalar tree_4_3_u01_r15_network.client[37] 	avg_time[37] 	0.004208379029
scalar tree_4_3_u01_r15_network.client[38] 	hdistance[38] 	2.7491519674356
scalar tree_4_3_u01_r15_network.client[38] 	downloads[38] 	11792
scalar tree_4_3_u01_r15_network.client[38] 	avg_time[38] 	0.004202699996
scalar tree_4_3_u01_r15_network.client[39] 	hdistance[39] 	2.763640956551
scalar tree_4_3_u01_r15_network.client[39] 	downloads[39] 	11876
scalar tree_4_3_u01_r15_network.client[39] 	avg_time[39] 	0.004223472925
