version 2
run General-26-20160819-10:59:20-2054
attr a 0.9
attr cd lcd
attr configname General
attr cr lru
attr datetime 20160819-10:59:20
attr experiment General
attr fsize 1
attr inifile hw5115/scenario_A/NRR-LCD.ini
attr iterationvars "$name=tree_4_3, $un=01, $rep=7, $cd=lcd, $cr=lru, $fsize=1, $a=0.9, $sl=nrr, $ttl=1000, $variance=0.05"
attr iterationvars2 "$name=tree_4_3, $un=01, $rep=7, $cd=lcd, $cr=lru, $fsize=1, $a=0.9, $sl=nrr, $ttl=1000, $variance=0.05, $repetition=0"
attr measurement "$name=tree_4_3, $un=01, $rep=7, $cd=lcd, $cr=lru, $fsize=1, $a=0.9, $sl=nrr, $ttl=1000, $variance=0.05"
attr name tree_4_3
attr network networks.${name}_u${un}_r${rep}_network
attr processid 2054
attr rep 7
attr repetition 0
attr replication #0
attr resultdir results
attr runnumber 26
attr seedset 7
attr sl nrr
attr ttl 1000
attr un 01
attr variance 0.05

scalar . 	a 	0.9
scalar . 	fsize 	1
scalar . 	rep 	7
scalar . 	ttl 	1000
scalar . 	un 	01
scalar . 	variance 	0.05
scalar tree_4_3_u01_r7_network.content_distribution 	repo-0 	0
scalar tree_4_3_u01_r7_network.content_distribution 	client-0 	13
scalar tree_4_3_u01_r7_network.content_distribution 	client-1 	14
scalar tree_4_3_u01_r7_network.content_distribution 	client-2 	15
scalar tree_4_3_u01_r7_network.content_distribution 	client-3 	16
scalar tree_4_3_u01_r7_network.content_distribution 	client-4 	17
scalar tree_4_3_u01_r7_network.content_distribution 	client-5 	18
scalar tree_4_3_u01_r7_network.content_distribution 	client-6 	19
scalar tree_4_3_u01_r7_network.content_distribution 	client-7 	20
scalar tree_4_3_u01_r7_network.content_distribution 	client-8 	21
scalar tree_4_3_u01_r7_network.content_distribution 	client-9 	22
scalar tree_4_3_u01_r7_network.content_distribution 	client-10 	23
scalar tree_4_3_u01_r7_network.content_distribution 	client-11 	24
scalar tree_4_3_u01_r7_network.content_distribution 	client-12 	25
scalar tree_4_3_u01_r7_network.content_distribution 	client-13 	26
scalar tree_4_3_u01_r7_network.content_distribution 	client-14 	27
scalar tree_4_3_u01_r7_network.content_distribution 	client-15 	28
scalar tree_4_3_u01_r7_network.content_distribution 	client-16 	29
scalar tree_4_3_u01_r7_network.content_distribution 	client-17 	30
scalar tree_4_3_u01_r7_network.content_distribution 	client-18 	31
scalar tree_4_3_u01_r7_network.content_distribution 	client-19 	32
scalar tree_4_3_u01_r7_network.content_distribution 	client-20 	33
scalar tree_4_3_u01_r7_network.content_distribution 	client-21 	34
scalar tree_4_3_u01_r7_network.content_distribution 	client-22 	35
scalar tree_4_3_u01_r7_network.content_distribution 	client-23 	36
scalar tree_4_3_u01_r7_network.content_distribution 	client-24 	37
scalar tree_4_3_u01_r7_network.content_distribution 	client-25 	38
scalar tree_4_3_u01_r7_network.content_distribution 	client-26 	39
scalar tree_4_3_u01_r7_network.content_distribution 	repo-0_card 	100000
scalar tree_4_3_u01_r7_network.content_distribution 	repo-0_price 	0
scalar tree_4_3_u01_r7_network.statistics 	stabilization_time 	810.9
scalar tree_4_3_u01_r7_network.statistics 	p_hit 	0.20561483228778
scalar tree_4_3_u01_r7_network.statistics 	interests 	24995.7
scalar tree_4_3_u01_r7_network.statistics 	data 	16917.825
scalar tree_4_3_u01_r7_network.statistics 	hdistance 	2.7481989898466
scalar tree_4_3_u01_r7_network.statistics 	avg_time 	0.004188690625
scalar tree_4_3_u01_r7_network.statistics 	downloads 	323111
scalar tree_4_3_u01_r7_network.statistics 	total_cost 	0
scalar tree_4_3_u01_r7_network.statistics 	total_replicas 	100000
scalar tree_4_3_u01_r7_network.statistics 	inner_hit 	0.34618134325356
scalar tree_4_3_u01_r7_network.node[0].core_layer 	interests[0] 	212881
scalar tree_4_3_u01_r7_network.node[0].core_layer 	repo_load[0] 	211256
scalar tree_4_3_u01_r7_network.node[0].core_layer 	data[0] 	0
scalar tree_4_3_u01_r7_network.node[0].core_layer 	repo_int[0] 	211256
scalar tree_4_3_u01_r7_network.node[0].content_store 	p_hit[0] 	0.007633372635416
scalar tree_4_3_u01_r7_network.node[0].content_store 	hits[0] 	1625
scalar tree_4_3_u01_r7_network.node[0].content_store 	misses[0] 	211256
scalar tree_4_3_u01_r7_network.node[0].content_store 	decision_yes[0] 	211256
scalar tree_4_3_u01_r7_network.node[0].content_store 	decision_no[0] 	0
scalar tree_4_3_u01_r7_network.node[0].content_store 	decision_ratio[0] 	1
scalar tree_4_3_u01_r7_network.node[1].core_layer 	interests[1] 	73229
scalar tree_4_3_u01_r7_network.node[1].core_layer 	data[1] 	71968
scalar tree_4_3_u01_r7_network.node[1].content_store 	p_hit[1] 	0.017192642259214
scalar tree_4_3_u01_r7_network.node[1].content_store 	hits[1] 	1259
scalar tree_4_3_u01_r7_network.node[1].content_store 	misses[1] 	71970
scalar tree_4_3_u01_r7_network.node[1].content_store 	decision_yes[1] 	1047
scalar tree_4_3_u01_r7_network.node[1].content_store 	decision_no[1] 	70921
scalar tree_4_3_u01_r7_network.node[1].content_store 	decision_ratio[1] 	0.014548132503335
scalar tree_4_3_u01_r7_network.node[2].core_layer 	interests[2] 	72805
scalar tree_4_3_u01_r7_network.node[2].core_layer 	data[2] 	71505
scalar tree_4_3_u01_r7_network.node[2].content_store 	p_hit[2] 	0.017855916489252
scalar tree_4_3_u01_r7_network.node[2].content_store 	hits[2] 	1300
scalar tree_4_3_u01_r7_network.node[2].content_store 	misses[2] 	71505
scalar tree_4_3_u01_r7_network.node[2].content_store 	decision_yes[2] 	1158
scalar tree_4_3_u01_r7_network.node[2].content_store 	decision_no[2] 	70347
scalar tree_4_3_u01_r7_network.node[2].content_store 	decision_ratio[2] 	0.01619467170128
scalar tree_4_3_u01_r7_network.node[3].core_layer 	interests[3] 	73629
scalar tree_4_3_u01_r7_network.node[3].core_layer 	data[3] 	72054
scalar tree_4_3_u01_r7_network.node[3].content_store 	p_hit[3] 	0.021391027991688
scalar tree_4_3_u01_r7_network.node[3].content_store 	hits[3] 	1575
scalar tree_4_3_u01_r7_network.node[3].content_store 	misses[3] 	72054
scalar tree_4_3_u01_r7_network.node[3].content_store 	decision_yes[3] 	1433
scalar tree_4_3_u01_r7_network.node[3].content_store 	decision_no[3] 	70621
scalar tree_4_3_u01_r7_network.node[3].content_store 	decision_ratio[3] 	0.019887861881367
scalar tree_4_3_u01_r7_network.node[4].core_layer 	interests[4] 	34766
scalar tree_4_3_u01_r7_network.node[4].core_layer 	data[4] 	33121
scalar tree_4_3_u01_r7_network.node[4].content_store 	p_hit[4] 	0.047316343554047
scalar tree_4_3_u01_r7_network.node[4].content_store 	hits[4] 	1645
scalar tree_4_3_u01_r7_network.node[4].content_store 	misses[4] 	33121
scalar tree_4_3_u01_r7_network.node[4].content_store 	decision_yes[4] 	1379
scalar tree_4_3_u01_r7_network.node[4].content_store 	decision_no[4] 	31742
scalar tree_4_3_u01_r7_network.node[4].content_store 	decision_ratio[4] 	0.041635216328009
scalar tree_4_3_u01_r7_network.node[5].core_layer 	interests[5] 	26216
scalar tree_4_3_u01_r7_network.node[5].core_layer 	data[5] 	25063
scalar tree_4_3_u01_r7_network.node[5].content_store 	p_hit[5] 	0.043980775099176
scalar tree_4_3_u01_r7_network.node[5].content_store 	hits[5] 	1153
scalar tree_4_3_u01_r7_network.node[5].content_store 	misses[5] 	25063
scalar tree_4_3_u01_r7_network.node[5].content_store 	decision_yes[5] 	928
scalar tree_4_3_u01_r7_network.node[5].content_store 	decision_no[5] 	24135
scalar tree_4_3_u01_r7_network.node[5].content_store 	decision_ratio[5] 	0.03702669273431
scalar tree_4_3_u01_r7_network.node[6].core_layer 	interests[6] 	18657
scalar tree_4_3_u01_r7_network.node[6].core_layer 	data[6] 	17149
scalar tree_4_3_u01_r7_network.node[6].content_store 	p_hit[6] 	0.080827571420914
scalar tree_4_3_u01_r7_network.node[6].content_store 	hits[6] 	1508
scalar tree_4_3_u01_r7_network.node[6].content_store 	misses[6] 	17149
scalar tree_4_3_u01_r7_network.node[6].content_store 	decision_yes[6] 	1056
scalar tree_4_3_u01_r7_network.node[6].content_store 	decision_no[6] 	16093
scalar tree_4_3_u01_r7_network.node[6].content_store 	decision_ratio[6] 	0.061577934573445
scalar tree_4_3_u01_r7_network.node[7].core_layer 	interests[7] 	34480
scalar tree_4_3_u01_r7_network.node[7].core_layer 	data[7] 	32797
scalar tree_4_3_u01_r7_network.node[7].content_store 	p_hit[7] 	0.04881090487239
scalar tree_4_3_u01_r7_network.node[7].content_store 	hits[7] 	1683
scalar tree_4_3_u01_r7_network.node[7].content_store 	misses[7] 	32797
scalar tree_4_3_u01_r7_network.node[7].content_store 	decision_yes[7] 	1437
scalar tree_4_3_u01_r7_network.node[7].content_store 	decision_no[7] 	31360
scalar tree_4_3_u01_r7_network.node[7].content_store 	decision_ratio[7] 	0.043814983077721
scalar tree_4_3_u01_r7_network.node[8].core_layer 	interests[8] 	18203
scalar tree_4_3_u01_r7_network.node[8].core_layer 	data[8] 	17012
scalar tree_4_3_u01_r7_network.node[8].content_store 	p_hit[8] 	0.065373839477009
scalar tree_4_3_u01_r7_network.node[8].content_store 	hits[8] 	1190
scalar tree_4_3_u01_r7_network.node[8].content_store 	misses[8] 	17013
scalar tree_4_3_u01_r7_network.node[8].content_store 	decision_yes[8] 	801
scalar tree_4_3_u01_r7_network.node[8].content_store 	decision_no[8] 	16211
scalar tree_4_3_u01_r7_network.node[8].content_store 	decision_ratio[8] 	0.047084411003997
scalar tree_4_3_u01_r7_network.node[9].core_layer 	interests[9] 	26149
scalar tree_4_3_u01_r7_network.node[9].core_layer 	data[9] 	24948
scalar tree_4_3_u01_r7_network.node[9].content_store 	p_hit[9] 	0.045852613866687
scalar tree_4_3_u01_r7_network.node[9].content_store 	hits[9] 	1199
scalar tree_4_3_u01_r7_network.node[9].content_store 	misses[9] 	24950
scalar tree_4_3_u01_r7_network.node[9].content_store 	decision_yes[9] 	1015
scalar tree_4_3_u01_r7_network.node[9].content_store 	decision_no[9] 	23933
scalar tree_4_3_u01_r7_network.node[9].content_store 	decision_ratio[9] 	0.040684624017957
scalar tree_4_3_u01_r7_network.node[10].core_layer 	interests[10] 	26491
scalar tree_4_3_u01_r7_network.node[10].core_layer 	data[10] 	25089
scalar tree_4_3_u01_r7_network.node[10].content_store 	p_hit[10] 	0.052923634441886
scalar tree_4_3_u01_r7_network.node[10].content_store 	hits[10] 	1402
scalar tree_4_3_u01_r7_network.node[10].content_store 	misses[10] 	25089
scalar tree_4_3_u01_r7_network.node[10].content_store 	decision_yes[10] 	1135
scalar tree_4_3_u01_r7_network.node[10].content_store 	decision_no[10] 	23954
scalar tree_4_3_u01_r7_network.node[10].content_store 	decision_ratio[10] 	0.045238949340348
scalar tree_4_3_u01_r7_network.node[11].core_layer 	interests[11] 	26607
scalar tree_4_3_u01_r7_network.node[11].core_layer 	data[11] 	25192
scalar tree_4_3_u01_r7_network.node[11].content_store 	p_hit[11] 	0.053219077686323
scalar tree_4_3_u01_r7_network.node[11].content_store 	hits[11] 	1416
scalar tree_4_3_u01_r7_network.node[11].content_store 	misses[11] 	25191
scalar tree_4_3_u01_r7_network.node[11].content_store 	decision_yes[11] 	1138
scalar tree_4_3_u01_r7_network.node[11].content_store 	decision_no[11] 	24054
scalar tree_4_3_u01_r7_network.node[11].content_store 	decision_ratio[11] 	0.045173070816132
scalar tree_4_3_u01_r7_network.node[12].core_layer 	interests[12] 	26667
scalar tree_4_3_u01_r7_network.node[12].core_layer 	data[12] 	25225
scalar tree_4_3_u01_r7_network.node[12].content_store 	p_hit[12] 	0.054074324070949
scalar tree_4_3_u01_r7_network.node[12].content_store 	hits[12] 	1442
scalar tree_4_3_u01_r7_network.node[12].content_store 	misses[12] 	25225
scalar tree_4_3_u01_r7_network.node[12].content_store 	decision_yes[12] 	1178
scalar tree_4_3_u01_r7_network.node[12].content_store 	decision_no[12] 	24047
scalar tree_4_3_u01_r7_network.node[12].content_store 	decision_ratio[12] 	0.046699702675917
scalar tree_4_3_u01_r7_network.node[13].core_layer 	interests[13] 	12111
scalar tree_4_3_u01_r7_network.node[13].core_layer 	data[13] 	8668
scalar tree_4_3_u01_r7_network.node[13].content_store 	p_hit[13] 	0.28428701180745
scalar tree_4_3_u01_r7_network.node[13].content_store 	hits[13] 	3443
scalar tree_4_3_u01_r7_network.node[13].content_store 	misses[13] 	8668
scalar tree_4_3_u01_r7_network.node[13].content_store 	decision_yes[13] 	381
scalar tree_4_3_u01_r7_network.node[13].content_store 	decision_no[13] 	8287
scalar tree_4_3_u01_r7_network.node[13].content_store 	decision_ratio[13] 	0.043954776188279
scalar tree_4_3_u01_r7_network.node[14].core_layer 	interests[14] 	12098
scalar tree_4_3_u01_r7_network.node[14].core_layer 	data[14] 	8669
scalar tree_4_3_u01_r7_network.node[14].content_store 	p_hit[14] 	0.28343527855844
scalar tree_4_3_u01_r7_network.node[14].content_store 	hits[14] 	3429
scalar tree_4_3_u01_r7_network.node[14].content_store 	misses[14] 	8669
scalar tree_4_3_u01_r7_network.node[14].content_store 	decision_yes[14] 	408
scalar tree_4_3_u01_r7_network.node[14].content_store 	decision_no[14] 	8261
scalar tree_4_3_u01_r7_network.node[14].content_store 	decision_ratio[14] 	0.047064251932172
scalar tree_4_3_u01_r7_network.node[15].core_layer 	interests[15] 	12380
scalar tree_4_3_u01_r7_network.node[15].core_layer 	data[15] 	8800
scalar tree_4_3_u01_r7_network.node[15].content_store 	p_hit[15] 	0.28909531502423
scalar tree_4_3_u01_r7_network.node[15].content_store 	hits[15] 	3579
scalar tree_4_3_u01_r7_network.node[15].content_store 	misses[15] 	8801
scalar tree_4_3_u01_r7_network.node[15].content_store 	decision_yes[15] 	366
scalar tree_4_3_u01_r7_network.node[15].content_store 	decision_no[15] 	8434
scalar tree_4_3_u01_r7_network.node[15].content_store 	decision_ratio[15] 	0.041590909090909
scalar tree_4_3_u01_r7_network.node[16].core_layer 	interests[16] 	12175
scalar tree_4_3_u01_r7_network.node[16].core_layer 	data[16] 	8754
scalar tree_4_3_u01_r7_network.node[16].content_store 	p_hit[16] 	0.28098562628337
scalar tree_4_3_u01_r7_network.node[16].content_store 	hits[16] 	3421
scalar tree_4_3_u01_r7_network.node[16].content_store 	misses[16] 	8754
scalar tree_4_3_u01_r7_network.node[16].content_store 	decision_yes[16] 	351
scalar tree_4_3_u01_r7_network.node[16].content_store 	decision_no[16] 	8403
scalar tree_4_3_u01_r7_network.node[16].content_store 	decision_ratio[16] 	0.040095956134339
scalar tree_4_3_u01_r7_network.node[17].core_layer 	interests[17] 	12284
scalar tree_4_3_u01_r7_network.node[17].core_layer 	data[17] 	8853
scalar tree_4_3_u01_r7_network.node[17].content_store 	p_hit[17] 	0.27930641484858
scalar tree_4_3_u01_r7_network.node[17].content_store 	hits[17] 	3431
scalar tree_4_3_u01_r7_network.node[17].content_store 	misses[17] 	8853
scalar tree_4_3_u01_r7_network.node[17].content_store 	decision_yes[17] 	345
scalar tree_4_3_u01_r7_network.node[17].content_store 	decision_no[17] 	8508
scalar tree_4_3_u01_r7_network.node[17].content_store 	decision_ratio[17] 	0.038969840731955
scalar tree_4_3_u01_r7_network.node[18].core_layer 	interests[18] 	12446
scalar tree_4_3_u01_r7_network.node[18].core_layer 	data[18] 	8813
scalar tree_4_3_u01_r7_network.node[18].content_store 	p_hit[18] 	0.29182066527398
scalar tree_4_3_u01_r7_network.node[18].content_store 	hits[18] 	3632
scalar tree_4_3_u01_r7_network.node[18].content_store 	misses[18] 	8814
scalar tree_4_3_u01_r7_network.node[18].content_store 	decision_yes[18] 	593
scalar tree_4_3_u01_r7_network.node[18].content_store 	decision_no[18] 	8220
scalar tree_4_3_u01_r7_network.node[18].content_store 	decision_ratio[18] 	0.067286962441847
scalar tree_4_3_u01_r7_network.node[19].core_layer 	interests[19] 	12308
scalar tree_4_3_u01_r7_network.node[19].core_layer 	data[19] 	8808
scalar tree_4_3_u01_r7_network.node[19].content_store 	p_hit[19] 	0.28428664283393
scalar tree_4_3_u01_r7_network.node[19].content_store 	hits[19] 	3499
scalar tree_4_3_u01_r7_network.node[19].content_store 	misses[19] 	8809
scalar tree_4_3_u01_r7_network.node[19].content_store 	decision_yes[19] 	632
scalar tree_4_3_u01_r7_network.node[19].content_store 	decision_no[19] 	8176
scalar tree_4_3_u01_r7_network.node[19].content_store 	decision_ratio[19] 	0.071752951861944
scalar tree_4_3_u01_r7_network.node[20].core_layer 	interests[20] 	12132
scalar tree_4_3_u01_r7_network.node[20].core_layer 	data[20] 	8793
scalar tree_4_3_u01_r7_network.node[20].content_store 	p_hit[20] 	0.27514012528849
scalar tree_4_3_u01_r7_network.node[20].content_store 	hits[20] 	3338
scalar tree_4_3_u01_r7_network.node[20].content_store 	misses[20] 	8794
scalar tree_4_3_u01_r7_network.node[20].content_store 	decision_yes[20] 	373
scalar tree_4_3_u01_r7_network.node[20].content_store 	decision_no[20] 	8420
scalar tree_4_3_u01_r7_network.node[20].content_store 	decision_ratio[20] 	0.042420106903218
scalar tree_4_3_u01_r7_network.node[21].core_layer 	interests[21] 	12202
scalar tree_4_3_u01_r7_network.node[21].core_layer 	data[21] 	8789
scalar tree_4_3_u01_r7_network.node[21].content_store 	p_hit[21] 	0.27970824455007
scalar tree_4_3_u01_r7_network.node[21].content_store 	hits[21] 	3413
scalar tree_4_3_u01_r7_network.node[21].content_store 	misses[21] 	8789
scalar tree_4_3_u01_r7_network.node[21].content_store 	decision_yes[21] 	342
scalar tree_4_3_u01_r7_network.node[21].content_store 	decision_no[21] 	8447
scalar tree_4_3_u01_r7_network.node[21].content_store 	decision_ratio[21] 	0.038912276709523
scalar tree_4_3_u01_r7_network.node[22].core_layer 	interests[22] 	12079
scalar tree_4_3_u01_r7_network.node[22].core_layer 	data[22] 	8628
scalar tree_4_3_u01_r7_network.node[22].content_store 	p_hit[22] 	0.28570245881282
scalar tree_4_3_u01_r7_network.node[22].content_store 	hits[22] 	3451
scalar tree_4_3_u01_r7_network.node[22].content_store 	misses[22] 	8628
scalar tree_4_3_u01_r7_network.node[22].content_store 	decision_yes[22] 	362
scalar tree_4_3_u01_r7_network.node[22].content_store 	decision_no[22] 	8266
scalar tree_4_3_u01_r7_network.node[22].content_store 	decision_ratio[22] 	0.04195642095503
scalar tree_4_3_u01_r7_network.node[23].core_layer 	interests[23] 	11984
scalar tree_4_3_u01_r7_network.node[23].core_layer 	data[23] 	8544
scalar tree_4_3_u01_r7_network.node[23].content_store 	p_hit[23] 	0.28704939919893
scalar tree_4_3_u01_r7_network.node[23].content_store 	hits[23] 	3440
scalar tree_4_3_u01_r7_network.node[23].content_store 	misses[23] 	8544
scalar tree_4_3_u01_r7_network.node[23].content_store 	decision_yes[23] 	374
scalar tree_4_3_u01_r7_network.node[23].content_store 	decision_no[23] 	8170
scalar tree_4_3_u01_r7_network.node[23].content_store 	decision_ratio[23] 	0.0437734082397
scalar tree_4_3_u01_r7_network.node[24].core_layer 	interests[24] 	12075
scalar tree_4_3_u01_r7_network.node[24].core_layer 	data[24] 	8654
scalar tree_4_3_u01_r7_network.node[24].content_store 	p_hit[24] 	0.28331262939959
scalar tree_4_3_u01_r7_network.node[24].content_store 	hits[24] 	3421
scalar tree_4_3_u01_r7_network.node[24].content_store 	misses[24] 	8654
scalar tree_4_3_u01_r7_network.node[24].content_store 	decision_yes[24] 	390
scalar tree_4_3_u01_r7_network.node[24].content_store 	decision_no[24] 	8264
scalar tree_4_3_u01_r7_network.node[24].content_store 	decision_ratio[24] 	0.045065865495725
scalar tree_4_3_u01_r7_network.node[25].core_layer 	interests[25] 	12235
scalar tree_4_3_u01_r7_network.node[25].core_layer 	data[25] 	8695
scalar tree_4_3_u01_r7_network.node[25].content_store 	p_hit[25] 	0.28933387821823
scalar tree_4_3_u01_r7_network.node[25].content_store 	hits[25] 	3540
scalar tree_4_3_u01_r7_network.node[25].content_store 	misses[25] 	8695
scalar tree_4_3_u01_r7_network.node[25].content_store 	decision_yes[25] 	626
scalar tree_4_3_u01_r7_network.node[25].content_store 	decision_no[25] 	8069
scalar tree_4_3_u01_r7_network.node[25].content_store 	decision_ratio[25] 	0.071995399654974
scalar tree_4_3_u01_r7_network.node[26].core_layer 	interests[26] 	12187
scalar tree_4_3_u01_r7_network.node[26].core_layer 	data[26] 	8789
scalar tree_4_3_u01_r7_network.node[26].content_store 	p_hit[26] 	0.27882169524904
scalar tree_4_3_u01_r7_network.node[26].content_store 	hits[26] 	3398
scalar tree_4_3_u01_r7_network.node[26].content_store 	misses[26] 	8789
scalar tree_4_3_u01_r7_network.node[26].content_store 	decision_yes[26] 	344
scalar tree_4_3_u01_r7_network.node[26].content_store 	decision_no[26] 	8445
scalar tree_4_3_u01_r7_network.node[26].content_store 	decision_ratio[26] 	0.039139833883263
scalar tree_4_3_u01_r7_network.node[27].core_layer 	interests[27] 	12231
scalar tree_4_3_u01_r7_network.node[27].core_layer 	data[27] 	8811
scalar tree_4_3_u01_r7_network.node[27].content_store 	p_hit[27] 	0.27953560624642
scalar tree_4_3_u01_r7_network.node[27].content_store 	hits[27] 	3419
scalar tree_4_3_u01_r7_network.node[27].content_store 	misses[27] 	8812
scalar tree_4_3_u01_r7_network.node[27].content_store 	decision_yes[27] 	348
scalar tree_4_3_u01_r7_network.node[27].content_store 	decision_no[27] 	8463
scalar tree_4_3_u01_r7_network.node[27].content_store 	decision_ratio[27] 	0.039496084439905
scalar tree_4_3_u01_r7_network.node[28].core_layer 	interests[28] 	12160
scalar tree_4_3_u01_r7_network.node[28].core_layer 	data[28] 	8688
scalar tree_4_3_u01_r7_network.node[28].content_store 	p_hit[28] 	0.28544407894737
scalar tree_4_3_u01_r7_network.node[28].content_store 	hits[28] 	3471
scalar tree_4_3_u01_r7_network.node[28].content_store 	misses[28] 	8689
scalar tree_4_3_u01_r7_network.node[28].content_store 	decision_yes[28] 	360
scalar tree_4_3_u01_r7_network.node[28].content_store 	decision_no[28] 	8328
scalar tree_4_3_u01_r7_network.node[28].content_store 	decision_ratio[28] 	0.041436464088398
scalar tree_4_3_u01_r7_network.node[29].core_layer 	interests[29] 	11866
scalar tree_4_3_u01_r7_network.node[29].core_layer 	data[29] 	8447
scalar tree_4_3_u01_r7_network.node[29].content_store 	p_hit[29] 	0.28813416484072
scalar tree_4_3_u01_r7_network.node[29].content_store 	hits[29] 	3419
scalar tree_4_3_u01_r7_network.node[29].content_store 	misses[29] 	8447
scalar tree_4_3_u01_r7_network.node[29].content_store 	decision_yes[29] 	322
scalar tree_4_3_u01_r7_network.node[29].content_store 	decision_no[29] 	8125
scalar tree_4_3_u01_r7_network.node[29].content_store 	decision_ratio[29] 	0.038120042618681
scalar tree_4_3_u01_r7_network.node[30].core_layer 	interests[30] 	12287
scalar tree_4_3_u01_r7_network.node[30].core_layer 	data[30] 	8767
scalar tree_4_3_u01_r7_network.node[30].content_store 	p_hit[30] 	0.28648164726947
scalar tree_4_3_u01_r7_network.node[30].content_store 	hits[30] 	3520
scalar tree_4_3_u01_r7_network.node[30].content_store 	misses[30] 	8767
scalar tree_4_3_u01_r7_network.node[30].content_store 	decision_yes[30] 	328
scalar tree_4_3_u01_r7_network.node[30].content_store 	decision_no[30] 	8439
scalar tree_4_3_u01_r7_network.node[30].content_store 	decision_ratio[30] 	0.03741302612068
scalar tree_4_3_u01_r7_network.node[31].core_layer 	interests[31] 	12144
scalar tree_4_3_u01_r7_network.node[31].core_layer 	data[31] 	8667
scalar tree_4_3_u01_r7_network.node[31].content_store 	p_hit[31] 	0.28631422924901
scalar tree_4_3_u01_r7_network.node[31].content_store 	hits[31] 	3477
scalar tree_4_3_u01_r7_network.node[31].content_store 	misses[31] 	8667
scalar tree_4_3_u01_r7_network.node[31].content_store 	decision_yes[31] 	372
scalar tree_4_3_u01_r7_network.node[31].content_store 	decision_no[31] 	8295
scalar tree_4_3_u01_r7_network.node[31].content_store 	decision_ratio[31] 	0.042921426098996
scalar tree_4_3_u01_r7_network.node[32].core_layer 	interests[32] 	12142
scalar tree_4_3_u01_r7_network.node[32].core_layer 	data[32] 	8676
scalar tree_4_3_u01_r7_network.node[32].content_store 	p_hit[32] 	0.28537308515895
scalar tree_4_3_u01_r7_network.node[32].content_store 	hits[32] 	3465
scalar tree_4_3_u01_r7_network.node[32].content_store 	misses[32] 	8677
scalar tree_4_3_u01_r7_network.node[32].content_store 	decision_yes[32] 	335
scalar tree_4_3_u01_r7_network.node[32].content_store 	decision_no[32] 	8341
scalar tree_4_3_u01_r7_network.node[32].content_store 	decision_ratio[32] 	0.038612263715998
scalar tree_4_3_u01_r7_network.node[33].core_layer 	interests[33] 	12160
scalar tree_4_3_u01_r7_network.node[33].core_layer 	data[33] 	8756
scalar tree_4_3_u01_r7_network.node[33].content_store 	p_hit[33] 	0.27993421052632
scalar tree_4_3_u01_r7_network.node[33].content_store 	hits[33] 	3404
scalar tree_4_3_u01_r7_network.node[33].content_store 	misses[33] 	8756
scalar tree_4_3_u01_r7_network.node[33].content_store 	decision_yes[33] 	388
scalar tree_4_3_u01_r7_network.node[33].content_store 	decision_no[33] 	8368
scalar tree_4_3_u01_r7_network.node[33].content_store 	decision_ratio[33] 	0.04431247144815
scalar tree_4_3_u01_r7_network.node[34].core_layer 	interests[34] 	12211
scalar tree_4_3_u01_r7_network.node[34].core_layer 	data[34] 	8755
scalar tree_4_3_u01_r7_network.node[34].content_store 	p_hit[34] 	0.2831053967734
scalar tree_4_3_u01_r7_network.node[34].content_store 	hits[34] 	3457
scalar tree_4_3_u01_r7_network.node[34].content_store 	misses[34] 	8754
scalar tree_4_3_u01_r7_network.node[34].content_store 	decision_yes[34] 	389
scalar tree_4_3_u01_r7_network.node[34].content_store 	decision_no[34] 	8366
scalar tree_4_3_u01_r7_network.node[34].content_store 	decision_ratio[34] 	0.044431753283838
scalar tree_4_3_u01_r7_network.node[35].core_layer 	interests[35] 	12260
scalar tree_4_3_u01_r7_network.node[35].core_layer 	data[35] 	8698
scalar tree_4_3_u01_r7_network.node[35].content_store 	p_hit[35] 	0.2905383360522
scalar tree_4_3_u01_r7_network.node[35].content_store 	hits[35] 	3562
scalar tree_4_3_u01_r7_network.node[35].content_store 	misses[35] 	8698
scalar tree_4_3_u01_r7_network.node[35].content_store 	decision_yes[35] 	342
scalar tree_4_3_u01_r7_network.node[35].content_store 	decision_no[35] 	8356
scalar tree_4_3_u01_r7_network.node[35].content_store 	decision_ratio[35] 	0.039319383766383
scalar tree_4_3_u01_r7_network.node[36].core_layer 	interests[36] 	12284
scalar tree_4_3_u01_r7_network.node[36].core_layer 	data[36] 	8773
scalar tree_4_3_u01_r7_network.node[36].content_store 	p_hit[36] 	0.2858189514816
scalar tree_4_3_u01_r7_network.node[36].content_store 	hits[36] 	3511
scalar tree_4_3_u01_r7_network.node[36].content_store 	misses[36] 	8773
scalar tree_4_3_u01_r7_network.node[36].content_store 	decision_yes[36] 	383
scalar tree_4_3_u01_r7_network.node[36].content_store 	decision_no[36] 	8390
scalar tree_4_3_u01_r7_network.node[36].content_store 	decision_ratio[36] 	0.043656673885786
scalar tree_4_3_u01_r7_network.node[37].core_layer 	interests[37] 	12351
scalar tree_4_3_u01_r7_network.node[37].core_layer 	data[37] 	8836
scalar tree_4_3_u01_r7_network.node[37].content_store 	p_hit[37] 	0.2846733058052
scalar tree_4_3_u01_r7_network.node[37].content_store 	hits[37] 	3516
scalar tree_4_3_u01_r7_network.node[37].content_store 	misses[37] 	8835
scalar tree_4_3_u01_r7_network.node[37].content_store 	decision_yes[37] 	378
scalar tree_4_3_u01_r7_network.node[37].content_store 	decision_no[37] 	8458
scalar tree_4_3_u01_r7_network.node[37].content_store 	decision_ratio[37] 	0.042779538252603
scalar tree_4_3_u01_r7_network.node[38].core_layer 	interests[38] 	12074
scalar tree_4_3_u01_r7_network.node[38].core_layer 	data[38] 	8716
scalar tree_4_3_u01_r7_network.node[38].content_store 	p_hit[38] 	0.27820109325824
scalar tree_4_3_u01_r7_network.node[38].content_store 	hits[38] 	3359
scalar tree_4_3_u01_r7_network.node[38].content_store 	misses[38] 	8715
scalar tree_4_3_u01_r7_network.node[38].content_store 	decision_yes[38] 	407
scalar tree_4_3_u01_r7_network.node[38].content_store 	decision_no[38] 	8309
scalar tree_4_3_u01_r7_network.node[38].content_store 	decision_ratio[38] 	0.04669573198715
scalar tree_4_3_u01_r7_network.node[39].core_layer 	interests[39] 	12182
scalar tree_4_3_u01_r7_network.node[39].core_layer 	data[39] 	8743
scalar tree_4_3_u01_r7_network.node[39].content_store 	p_hit[39] 	0.2823017566902
scalar tree_4_3_u01_r7_network.node[39].content_store 	hits[39] 	3439
scalar tree_4_3_u01_r7_network.node[39].content_store 	misses[39] 	8743
scalar tree_4_3_u01_r7_network.node[39].content_store 	decision_yes[39] 	386
scalar tree_4_3_u01_r7_network.node[39].content_store 	decision_no[39] 	8357
scalar tree_4_3_u01_r7_network.node[39].content_store 	decision_ratio[39] 	0.044149605398605
scalar tree_4_3_u01_r7_network.client[13] 	hdistance[13] 	2.7431092436975
scalar tree_4_3_u01_r7_network.client[13] 	downloads[13] 	11900
scalar tree_4_3_u01_r7_network.client[13] 	avg_time[13] 	0.004182013815
scalar tree_4_3_u01_r7_network.client[14] 	hdistance[14] 	2.732067864942
scalar tree_4_3_u01_r7_network.client[14] 	downloads[14] 	11906
scalar tree_4_3_u01_r7_network.client[14] 	avg_time[14] 	0.004167811565
scalar tree_4_3_u01_r7_network.client[15] 	hdistance[15] 	2.7366302472685
scalar tree_4_3_u01_r7_network.client[15] 	downloads[15] 	12173
scalar tree_4_3_u01_r7_network.client[15] 	avg_time[15] 	0.004163869388
scalar tree_4_3_u01_r7_network.client[16] 	hdistance[16] 	2.7553890969621
scalar tree_4_3_u01_r7_network.client[16] 	downloads[16] 	12015
scalar tree_4_3_u01_r7_network.client[16] 	avg_time[16] 	0.004200437723
scalar tree_4_3_u01_r7_network.client[17] 	hdistance[17] 	2.758007410457
scalar tree_4_3_u01_r7_network.client[17] 	downloads[17] 	12145
scalar tree_4_3_u01_r7_network.client[17] 	avg_time[17] 	0.004205348965
scalar tree_4_3_u01_r7_network.client[18] 	hdistance[18] 	2.731370592149
scalar tree_4_3_u01_r7_network.client[18] 	downloads[18] 	12024
scalar tree_4_3_u01_r7_network.client[18] 	avg_time[18] 	0.004157016267
scalar tree_4_3_u01_r7_network.client[19] 	hdistance[19] 	2.7540458530007
scalar tree_4_3_u01_r7_network.client[19] 	downloads[19] 	11864
scalar tree_4_3_u01_r7_network.client[19] 	avg_time[19] 	0.004191025246
scalar tree_4_3_u01_r7_network.client[20] 	hdistance[20] 	2.7704137066444
scalar tree_4_3_u01_r7_network.client[20] 	downloads[20] 	11965
scalar tree_4_3_u01_r7_network.client[20] 	avg_time[20] 	0.004221582027
scalar tree_4_3_u01_r7_network.client[21] 	hdistance[21] 	2.7620471917581
scalar tree_4_3_u01_r7_network.client[21] 	downloads[21] 	12036
scalar tree_4_3_u01_r7_network.client[21] 	avg_time[21] 	0.004208371857
scalar tree_4_3_u01_r7_network.client[22] 	hdistance[22] 	2.7508235492863
scalar tree_4_3_u01_r7_network.client[22] 	downloads[22] 	11839
scalar tree_4_3_u01_r7_network.client[22] 	avg_time[22] 	0.0041925809
scalar tree_4_3_u01_r7_network.client[23] 	hdistance[23] 	2.7328127652351
scalar tree_4_3_u01_r7_network.client[23] 	downloads[23] 	11782
scalar tree_4_3_u01_r7_network.client[23] 	avg_time[23] 	0.004163806224
scalar tree_4_3_u01_r7_network.client[24] 	hdistance[24] 	2.7404876402599
scalar tree_4_3_u01_r7_network.client[24] 	downloads[24] 	11853
scalar tree_4_3_u01_r7_network.client[24] 	avg_time[24] 	0.004180204586
scalar tree_4_3_u01_r7_network.client[25] 	hdistance[25] 	2.7445652173913
scalar tree_4_3_u01_r7_network.client[25] 	downloads[25] 	11776
scalar tree_4_3_u01_r7_network.client[25] 	avg_time[25] 	0.004176457668
scalar tree_4_3_u01_r7_network.client[26] 	hdistance[26] 	2.7596879926977
scalar tree_4_3_u01_r7_network.client[26] 	downloads[26] 	12051
scalar tree_4_3_u01_r7_network.client[26] 	avg_time[26] 	0.004206784826
scalar tree_4_3_u01_r7_network.client[27] 	hdistance[27] 	2.7628422532881
scalar tree_4_3_u01_r7_network.client[27] 	downloads[27] 	12089
scalar tree_4_3_u01_r7_network.client[27] 	avg_time[27] 	0.004206465639
scalar tree_4_3_u01_r7_network.client[28] 	hdistance[28] 	2.7438057896054
scalar tree_4_3_u01_r7_network.client[28] 	downloads[28] 	11987
scalar tree_4_3_u01_r7_network.client[28] 	avg_time[28] 	0.004180408412
scalar tree_4_3_u01_r7_network.client[29] 	hdistance[29] 	2.7420376712329
scalar tree_4_3_u01_r7_network.client[29] 	downloads[29] 	11680
scalar tree_4_3_u01_r7_network.client[29] 	avg_time[29] 	0.004177908042
scalar tree_4_3_u01_r7_network.client[30] 	hdistance[30] 	2.7542176645716
scalar tree_4_3_u01_r7_network.client[30] 	downloads[30] 	12092
scalar tree_4_3_u01_r7_network.client[30] 	avg_time[30] 	0.004192024764
scalar tree_4_3_u01_r7_network.client[31] 	hdistance[31] 	2.7344940152339
scalar tree_4_3_u01_r7_network.client[31] 	downloads[31] 	11947
scalar tree_4_3_u01_r7_network.client[31] 	avg_time[31] 	0.004172927431
scalar tree_4_3_u01_r7_network.client[32] 	hdistance[32] 	2.7586033238207
scalar tree_4_3_u01_r7_network.client[32] 	downloads[32] 	11914
scalar tree_4_3_u01_r7_network.client[32] 	avg_time[32] 	0.004205342868
scalar tree_4_3_u01_r7_network.client[33] 	hdistance[33] 	2.7599264398562
scalar tree_4_3_u01_r7_network.client[33] 	downloads[33] 	11963
scalar tree_4_3_u01_r7_network.client[33] 	avg_time[33] 	0.004209810597
scalar tree_4_3_u01_r7_network.client[34] 	hdistance[34] 	2.7430780743327
scalar tree_4_3_u01_r7_network.client[34] 	downloads[34] 	12027
scalar tree_4_3_u01_r7_network.client[34] 	avg_time[34] 	0.004182419864
scalar tree_4_3_u01_r7_network.client[35] 	hdistance[35] 	2.732674910781
scalar tree_4_3_u01_r7_network.client[35] 	downloads[35] 	12049
scalar tree_4_3_u01_r7_network.client[35] 	avg_time[35] 	0.004165985851
scalar tree_4_3_u01_r7_network.client[36] 	hdistance[36] 	2.7372691893682
scalar tree_4_3_u01_r7_network.client[36] 	downloads[36] 	12077
scalar tree_4_3_u01_r7_network.client[36] 	avg_time[36] 	0.00417884937
scalar tree_4_3_u01_r7_network.client[37] 	hdistance[37] 	2.7509695519432
scalar tree_4_3_u01_r7_network.client[37] 	downloads[37] 	12119
scalar tree_4_3_u01_r7_network.client[37] 	avg_time[37] 	0.004197207946
scalar tree_4_3_u01_r7_network.client[38] 	hdistance[38] 	2.7609978088657
scalar tree_4_3_u01_r7_network.client[38] 	downloads[38] 	11866
scalar tree_4_3_u01_r7_network.client[38] 	avg_time[38] 	0.004211696725
scalar tree_4_3_u01_r7_network.client[39] 	hdistance[39] 	2.7489976612095
scalar tree_4_3_u01_r7_network.client[39] 	downloads[39] 	11972
scalar tree_4_3_u01_r7_network.client[39] 	avg_time[39] 	0.004196288334
