version 2
run General-23-20160819-10:56:18-2054
attr a 0.9
attr cd lcd
attr configname General
attr cr lru
attr datetime 20160819-10:56:18
attr experiment General
attr fsize 1
attr inifile hw5115/scenario_A/NRR-LCD.ini
attr iterationvars "$name=tree_4_3, $un=01, $rep=4, $cd=lcd, $cr=lru, $fsize=1, $a=0.9, $sl=nrr, $ttl=1000, $variance=0.05"
attr iterationvars2 "$name=tree_4_3, $un=01, $rep=4, $cd=lcd, $cr=lru, $fsize=1, $a=0.9, $sl=nrr, $ttl=1000, $variance=0.05, $repetition=0"
attr measurement "$name=tree_4_3, $un=01, $rep=4, $cd=lcd, $cr=lru, $fsize=1, $a=0.9, $sl=nrr, $ttl=1000, $variance=0.05"
attr name tree_4_3
attr network networks.${name}_u${un}_r${rep}_network
attr processid 2054
attr rep 4
attr repetition 0
attr replication #0
attr resultdir results
attr runnumber 23
attr seedset 4
attr sl nrr
attr ttl 1000
attr un 01
attr variance 0.05

scalar . 	a 	0.9
scalar . 	fsize 	1
scalar . 	rep 	4
scalar . 	ttl 	1000
scalar . 	un 	01
scalar . 	variance 	0.05
scalar tree_4_3_u01_r4_network.content_distribution 	repo-0 	0
scalar tree_4_3_u01_r4_network.content_distribution 	client-0 	13
scalar tree_4_3_u01_r4_network.content_distribution 	client-1 	14
scalar tree_4_3_u01_r4_network.content_distribution 	client-2 	15
scalar tree_4_3_u01_r4_network.content_distribution 	client-3 	16
scalar tree_4_3_u01_r4_network.content_distribution 	client-4 	17
scalar tree_4_3_u01_r4_network.content_distribution 	client-5 	18
scalar tree_4_3_u01_r4_network.content_distribution 	client-6 	19
scalar tree_4_3_u01_r4_network.content_distribution 	client-7 	20
scalar tree_4_3_u01_r4_network.content_distribution 	client-8 	21
scalar tree_4_3_u01_r4_network.content_distribution 	client-9 	22
scalar tree_4_3_u01_r4_network.content_distribution 	client-10 	23
scalar tree_4_3_u01_r4_network.content_distribution 	client-11 	24
scalar tree_4_3_u01_r4_network.content_distribution 	client-12 	25
scalar tree_4_3_u01_r4_network.content_distribution 	client-13 	26
scalar tree_4_3_u01_r4_network.content_distribution 	client-14 	27
scalar tree_4_3_u01_r4_network.content_distribution 	client-15 	28
scalar tree_4_3_u01_r4_network.content_distribution 	client-16 	29
scalar tree_4_3_u01_r4_network.content_distribution 	client-17 	30
scalar tree_4_3_u01_r4_network.content_distribution 	client-18 	31
scalar tree_4_3_u01_r4_network.content_distribution 	client-19 	32
scalar tree_4_3_u01_r4_network.content_distribution 	client-20 	33
scalar tree_4_3_u01_r4_network.content_distribution 	client-21 	34
scalar tree_4_3_u01_r4_network.content_distribution 	client-22 	35
scalar tree_4_3_u01_r4_network.content_distribution 	client-23 	36
scalar tree_4_3_u01_r4_network.content_distribution 	client-24 	37
scalar tree_4_3_u01_r4_network.content_distribution 	client-25 	38
scalar tree_4_3_u01_r4_network.content_distribution 	client-26 	39
scalar tree_4_3_u01_r4_network.content_distribution 	repo-0_card 	100000
scalar tree_4_3_u01_r4_network.content_distribution 	repo-0_price 	0
scalar tree_4_3_u01_r4_network.statistics 	stabilization_time 	689.6
scalar tree_4_3_u01_r4_network.statistics 	p_hit 	0.20635915324466
scalar tree_4_3_u01_r4_network.statistics 	interests 	25045.7
scalar tree_4_3_u01_r4_network.statistics 	data 	16945.6
scalar tree_4_3_u01_r4_network.statistics 	hdistance 	2.7442999983412
scalar tree_4_3_u01_r4_network.statistics 	avg_time 	0.004184067147
scalar tree_4_3_u01_r4_network.statistics 	downloads 	323999
scalar tree_4_3_u01_r4_network.statistics 	total_cost 	0
scalar tree_4_3_u01_r4_network.statistics 	total_replicas 	100000
scalar tree_4_3_u01_r4_network.statistics 	inner_hit 	0.34776959188146
scalar tree_4_3_u01_r4_network.node[0].core_layer 	interests[0] 	212945
scalar tree_4_3_u01_r4_network.node[0].core_layer 	repo_load[0] 	211322
scalar tree_4_3_u01_r4_network.node[0].core_layer 	data[0] 	0
scalar tree_4_3_u01_r4_network.node[0].core_layer 	repo_int[0] 	211322
scalar tree_4_3_u01_r4_network.node[0].content_store 	p_hit[0] 	0.0076216863509357
scalar tree_4_3_u01_r4_network.node[0].content_store 	hits[0] 	1623
scalar tree_4_3_u01_r4_network.node[0].content_store 	misses[0] 	211322
scalar tree_4_3_u01_r4_network.node[0].content_store 	decision_yes[0] 	211322
scalar tree_4_3_u01_r4_network.node[0].content_store 	decision_no[0] 	0
scalar tree_4_3_u01_r4_network.node[0].content_store 	decision_ratio[0] 	1
scalar tree_4_3_u01_r4_network.node[1].core_layer 	interests[1] 	72892
scalar tree_4_3_u01_r4_network.node[1].core_layer 	data[1] 	71530
scalar tree_4_3_u01_r4_network.node[1].content_store 	p_hit[1] 	0.018671459145036
scalar tree_4_3_u01_r4_network.node[1].content_store 	hits[1] 	1361
scalar tree_4_3_u01_r4_network.node[1].content_store 	misses[1] 	71531
scalar tree_4_3_u01_r4_network.node[1].content_store 	decision_yes[1] 	1149
scalar tree_4_3_u01_r4_network.node[1].content_store 	decision_no[1] 	70381
scalar tree_4_3_u01_r4_network.node[1].content_store 	decision_ratio[1] 	0.016063190269817
scalar tree_4_3_u01_r4_network.node[2].core_layer 	interests[2] 	73828
scalar tree_4_3_u01_r4_network.node[2].core_layer 	data[2] 	72292
scalar tree_4_3_u01_r4_network.node[2].content_store 	p_hit[2] 	0.02080511459067
scalar tree_4_3_u01_r4_network.node[2].content_store 	hits[2] 	1536
scalar tree_4_3_u01_r4_network.node[2].content_store 	misses[2] 	72292
scalar tree_4_3_u01_r4_network.node[2].content_store 	decision_yes[2] 	1401
scalar tree_4_3_u01_r4_network.node[2].content_store 	decision_no[2] 	70890
scalar tree_4_3_u01_r4_network.node[2].content_store 	decision_ratio[2] 	0.019380005809852
scalar tree_4_3_u01_r4_network.node[3].core_layer 	interests[3] 	73234
scalar tree_4_3_u01_r4_network.node[3].core_layer 	data[3] 	71888
scalar tree_4_3_u01_r4_network.node[3].content_store 	p_hit[3] 	0.018365786383374
scalar tree_4_3_u01_r4_network.node[3].content_store 	hits[3] 	1345
scalar tree_4_3_u01_r4_network.node[3].content_store 	misses[3] 	71889
scalar tree_4_3_u01_r4_network.node[3].content_store 	decision_yes[3] 	1208
scalar tree_4_3_u01_r4_network.node[3].content_store 	decision_no[3] 	70680
scalar tree_4_3_u01_r4_network.node[3].content_store 	decision_ratio[3] 	0.01680391720454
scalar tree_4_3_u01_r4_network.node[4].core_layer 	interests[4] 	34749
scalar tree_4_3_u01_r4_network.node[4].core_layer 	data[4] 	33109
scalar tree_4_3_u01_r4_network.node[4].content_store 	p_hit[4] 	0.047166824944603
scalar tree_4_3_u01_r4_network.node[4].content_store 	hits[4] 	1639
scalar tree_4_3_u01_r4_network.node[4].content_store 	misses[4] 	33110
scalar tree_4_3_u01_r4_network.node[4].content_store 	decision_yes[4] 	1382
scalar tree_4_3_u01_r4_network.node[4].content_store 	decision_no[4] 	31727
scalar tree_4_3_u01_r4_network.node[4].content_store 	decision_ratio[4] 	0.041740916367151
scalar tree_4_3_u01_r4_network.node[5].core_layer 	interests[5] 	26351
scalar tree_4_3_u01_r4_network.node[5].core_layer 	data[5] 	25107
scalar tree_4_3_u01_r4_network.node[5].content_store 	p_hit[5] 	0.047208834579333
scalar tree_4_3_u01_r4_network.node[5].content_store 	hits[5] 	1244
scalar tree_4_3_u01_r4_network.node[5].content_store 	misses[5] 	25107
scalar tree_4_3_u01_r4_network.node[5].content_store 	decision_yes[5] 	1090
scalar tree_4_3_u01_r4_network.node[5].content_store 	decision_no[5] 	24017
scalar tree_4_3_u01_r4_network.node[5].content_store 	decision_ratio[5] 	0.043414187278448
scalar tree_4_3_u01_r4_network.node[6].core_layer 	interests[6] 	17862
scalar tree_4_3_u01_r4_network.node[6].core_layer 	data[6] 	16638
scalar tree_4_3_u01_r4_network.node[6].content_store 	p_hit[6] 	0.06852536110178
scalar tree_4_3_u01_r4_network.node[6].content_store 	hits[6] 	1224
scalar tree_4_3_u01_r4_network.node[6].content_store 	misses[6] 	16638
scalar tree_4_3_u01_r4_network.node[6].content_store 	decision_yes[6] 	851
scalar tree_4_3_u01_r4_network.node[6].content_store 	decision_no[6] 	15787
scalar tree_4_3_u01_r4_network.node[6].content_store 	decision_ratio[6] 	0.051147974516168
scalar tree_4_3_u01_r4_network.node[7].core_layer 	interests[7] 	26830
scalar tree_4_3_u01_r4_network.node[7].core_layer 	data[7] 	25437
scalar tree_4_3_u01_r4_network.node[7].content_store 	p_hit[7] 	0.051882221393962
scalar tree_4_3_u01_r4_network.node[7].content_store 	hits[7] 	1392
scalar tree_4_3_u01_r4_network.node[7].content_store 	misses[7] 	25438
scalar tree_4_3_u01_r4_network.node[7].content_store 	decision_yes[7] 	1035
scalar tree_4_3_u01_r4_network.node[7].content_store 	decision_no[7] 	24402
scalar tree_4_3_u01_r4_network.node[7].content_store 	decision_ratio[7] 	0.040688760467036
scalar tree_4_3_u01_r4_network.node[8].core_layer 	interests[8] 	26510
scalar tree_4_3_u01_r4_network.node[8].core_layer 	data[8] 	25119
scalar tree_4_3_u01_r4_network.node[8].content_store 	p_hit[8] 	0.052433044134289
scalar tree_4_3_u01_r4_network.node[8].content_store 	hits[8] 	1390
scalar tree_4_3_u01_r4_network.node[8].content_store 	misses[8] 	25120
scalar tree_4_3_u01_r4_network.node[8].content_store 	decision_yes[8] 	1099
scalar tree_4_3_u01_r4_network.node[8].content_store 	decision_no[8] 	24020
scalar tree_4_3_u01_r4_network.node[8].content_store 	decision_ratio[8] 	0.043751741709463
scalar tree_4_3_u01_r4_network.node[9].core_layer 	interests[9] 	26402
scalar tree_4_3_u01_r4_network.node[9].core_layer 	data[9] 	25020
scalar tree_4_3_u01_r4_network.node[9].content_store 	p_hit[9] 	0.052344519354594
scalar tree_4_3_u01_r4_network.node[9].content_store 	hits[9] 	1382
scalar tree_4_3_u01_r4_network.node[9].content_store 	misses[9] 	25020
scalar tree_4_3_u01_r4_network.node[9].content_store 	decision_yes[9] 	1150
scalar tree_4_3_u01_r4_network.node[9].content_store 	decision_no[9] 	23870
scalar tree_4_3_u01_r4_network.node[9].content_store 	decision_ratio[9] 	0.045963229416467
scalar tree_4_3_u01_r4_network.node[10].core_layer 	interests[10] 	43600
scalar tree_4_3_u01_r4_network.node[10].core_layer 	data[10] 	41463
scalar tree_4_3_u01_r4_network.node[10].content_store 	p_hit[10] 	0.048990825688073
scalar tree_4_3_u01_r4_network.node[10].content_store 	hits[10] 	2136
scalar tree_4_3_u01_r4_network.node[10].content_store 	misses[10] 	41464
scalar tree_4_3_u01_r4_network.node[10].content_store 	decision_yes[10] 	2029
scalar tree_4_3_u01_r4_network.node[10].content_store 	decision_no[10] 	39434
scalar tree_4_3_u01_r4_network.node[10].content_store 	decision_ratio[10] 	0.048935195234305
scalar tree_4_3_u01_r4_network.node[11].core_layer 	interests[11] 	18151
scalar tree_4_3_u01_r4_network.node[11].core_layer 	data[11] 	16995
scalar tree_4_3_u01_r4_network.node[11].content_store 	p_hit[11] 	0.063687951077076
scalar tree_4_3_u01_r4_network.node[11].content_store 	hits[11] 	1156
scalar tree_4_3_u01_r4_network.node[11].content_store 	misses[11] 	16995
scalar tree_4_3_u01_r4_network.node[11].content_store 	decision_yes[11] 	875
scalar tree_4_3_u01_r4_network.node[11].content_store 	decision_no[11] 	16120
scalar tree_4_3_u01_r4_network.node[11].content_store 	decision_ratio[11] 	0.051485731097382
scalar tree_4_3_u01_r4_network.node[12].core_layer 	interests[12] 	18369
scalar tree_4_3_u01_r4_network.node[12].core_layer 	data[12] 	17168
scalar tree_4_3_u01_r4_network.node[12].content_store 	p_hit[12] 	0.065327453862486
scalar tree_4_3_u01_r4_network.node[12].content_store 	hits[12] 	1200
scalar tree_4_3_u01_r4_network.node[12].content_store 	misses[12] 	17169
scalar tree_4_3_u01_r4_network.node[12].content_store 	decision_yes[12] 	833
scalar tree_4_3_u01_r4_network.node[12].content_store 	decision_no[12] 	16335
scalar tree_4_3_u01_r4_network.node[12].content_store 	decision_ratio[12] 	0.048520503261883
scalar tree_4_3_u01_r4_network.node[13].core_layer 	interests[13] 	12188
scalar tree_4_3_u01_r4_network.node[13].core_layer 	data[13] 	8664
scalar tree_4_3_u01_r4_network.node[13].content_store 	p_hit[13] 	0.28913685592386
scalar tree_4_3_u01_r4_network.node[13].content_store 	hits[13] 	3524
scalar tree_4_3_u01_r4_network.node[13].content_store 	misses[13] 	8664
scalar tree_4_3_u01_r4_network.node[13].content_store 	decision_yes[13] 	382
scalar tree_4_3_u01_r4_network.node[13].content_store 	decision_no[13] 	8282
scalar tree_4_3_u01_r4_network.node[13].content_store 	decision_ratio[13] 	0.044090489381348
scalar tree_4_3_u01_r4_network.node[14].core_layer 	interests[14] 	12119
scalar tree_4_3_u01_r4_network.node[14].core_layer 	data[14] 	8665
scalar tree_4_3_u01_r4_network.node[14].content_store 	p_hit[14] 	0.28500701378001
scalar tree_4_3_u01_r4_network.node[14].content_store 	hits[14] 	3454
scalar tree_4_3_u01_r4_network.node[14].content_store 	misses[14] 	8665
scalar tree_4_3_u01_r4_network.node[14].content_store 	decision_yes[14] 	353
scalar tree_4_3_u01_r4_network.node[14].content_store 	decision_no[14] 	8312
scalar tree_4_3_u01_r4_network.node[14].content_store 	decision_ratio[14] 	0.040738603577611
scalar tree_4_3_u01_r4_network.node[15].core_layer 	interests[15] 	12114
scalar tree_4_3_u01_r4_network.node[15].core_layer 	data[15] 	8669
scalar tree_4_3_u01_r4_network.node[15].content_store 	p_hit[15] 	0.28438170711573
scalar tree_4_3_u01_r4_network.node[15].content_store 	hits[15] 	3445
scalar tree_4_3_u01_r4_network.node[15].content_store 	misses[15] 	8669
scalar tree_4_3_u01_r4_network.node[15].content_store 	decision_yes[15] 	377
scalar tree_4_3_u01_r4_network.node[15].content_store 	decision_no[15] 	8292
scalar tree_4_3_u01_r4_network.node[15].content_store 	decision_ratio[15] 	0.043488291613796
scalar tree_4_3_u01_r4_network.node[16].core_layer 	interests[16] 	12054
scalar tree_4_3_u01_r4_network.node[16].core_layer 	data[16] 	8623
scalar tree_4_3_u01_r4_network.node[16].content_store 	p_hit[16] 	0.28463580554173
scalar tree_4_3_u01_r4_network.node[16].content_store 	hits[16] 	3431
scalar tree_4_3_u01_r4_network.node[16].content_store 	misses[16] 	8623
scalar tree_4_3_u01_r4_network.node[16].content_store 	decision_yes[16] 	316
scalar tree_4_3_u01_r4_network.node[16].content_store 	decision_no[16] 	8307
scalar tree_4_3_u01_r4_network.node[16].content_store 	decision_ratio[16] 	0.036646178824075
scalar tree_4_3_u01_r4_network.node[17].core_layer 	interests[17] 	12143
scalar tree_4_3_u01_r4_network.node[17].core_layer 	data[17] 	8725
scalar tree_4_3_u01_r4_network.node[17].content_store 	p_hit[17] 	0.28147904142304
scalar tree_4_3_u01_r4_network.node[17].content_store 	hits[17] 	3418
scalar tree_4_3_u01_r4_network.node[17].content_store 	misses[17] 	8725
scalar tree_4_3_u01_r4_network.node[17].content_store 	decision_yes[17] 	364
scalar tree_4_3_u01_r4_network.node[17].content_store 	decision_no[17] 	8361
scalar tree_4_3_u01_r4_network.node[17].content_store 	decision_ratio[17] 	0.041719197707736
scalar tree_4_3_u01_r4_network.node[18].core_layer 	interests[18] 	12206
scalar tree_4_3_u01_r4_network.node[18].core_layer 	data[18] 	8750
scalar tree_4_3_u01_r4_network.node[18].content_store 	p_hit[18] 	0.28313943961986
scalar tree_4_3_u01_r4_network.node[18].content_store 	hits[18] 	3456
scalar tree_4_3_u01_r4_network.node[18].content_store 	misses[18] 	8750
scalar tree_4_3_u01_r4_network.node[18].content_store 	decision_yes[18] 	375
scalar tree_4_3_u01_r4_network.node[18].content_store 	decision_no[18] 	8375
scalar tree_4_3_u01_r4_network.node[18].content_store 	decision_ratio[18] 	0.042857142857143
scalar tree_4_3_u01_r4_network.node[19].core_layer 	interests[19] 	12492
scalar tree_4_3_u01_r4_network.node[19].core_layer 	data[19] 	8807
scalar tree_4_3_u01_r4_network.node[19].content_store 	p_hit[19] 	0.29498879282741
scalar tree_4_3_u01_r4_network.node[19].content_store 	hits[19] 	3685
scalar tree_4_3_u01_r4_network.node[19].content_store 	misses[19] 	8807
scalar tree_4_3_u01_r4_network.node[19].content_store 	decision_yes[19] 	594
scalar tree_4_3_u01_r4_network.node[19].content_store 	decision_no[19] 	8213
scalar tree_4_3_u01_r4_network.node[19].content_store 	decision_ratio[19] 	0.06744634949472
scalar tree_4_3_u01_r4_network.node[20].core_layer 	interests[20] 	11729
scalar tree_4_3_u01_r4_network.node[20].core_layer 	data[20] 	8422
scalar tree_4_3_u01_r4_network.node[20].content_store 	p_hit[20] 	0.28195072043652
scalar tree_4_3_u01_r4_network.node[20].content_store 	hits[20] 	3307
scalar tree_4_3_u01_r4_network.node[20].content_store 	misses[20] 	8422
scalar tree_4_3_u01_r4_network.node[20].content_store 	decision_yes[20] 	351
scalar tree_4_3_u01_r4_network.node[20].content_store 	decision_no[20] 	8071
scalar tree_4_3_u01_r4_network.node[20].content_store 	decision_ratio[20] 	0.041676561386844
scalar tree_4_3_u01_r4_network.node[21].core_layer 	interests[21] 	12272
scalar tree_4_3_u01_r4_network.node[21].core_layer 	data[21] 	8804
scalar tree_4_3_u01_r4_network.node[21].content_store 	p_hit[21] 	0.28243155149935
scalar tree_4_3_u01_r4_network.node[21].content_store 	hits[21] 	3466
scalar tree_4_3_u01_r4_network.node[21].content_store 	misses[21] 	8806
scalar tree_4_3_u01_r4_network.node[21].content_store 	decision_yes[21] 	355
scalar tree_4_3_u01_r4_network.node[21].content_store 	decision_no[21] 	8449
scalar tree_4_3_u01_r4_network.node[21].content_store 	decision_ratio[21] 	0.040322580645161
scalar tree_4_3_u01_r4_network.node[22].core_layer 	interests[22] 	12368
scalar tree_4_3_u01_r4_network.node[22].core_layer 	data[22] 	8871
scalar tree_4_3_u01_r4_network.node[22].content_store 	p_hit[22] 	0.28266494178525
scalar tree_4_3_u01_r4_network.node[22].content_store 	hits[22] 	3496
scalar tree_4_3_u01_r4_network.node[22].content_store 	misses[22] 	8872
scalar tree_4_3_u01_r4_network.node[22].content_store 	decision_yes[22] 	369
scalar tree_4_3_u01_r4_network.node[22].content_store 	decision_no[22] 	8502
scalar tree_4_3_u01_r4_network.node[22].content_store 	decision_ratio[22] 	0.04159621237741
scalar tree_4_3_u01_r4_network.node[23].core_layer 	interests[23] 	12298
scalar tree_4_3_u01_r4_network.node[23].core_layer 	data[23] 	8830
scalar tree_4_3_u01_r4_network.node[23].content_store 	p_hit[23] 	0.28199707269475
scalar tree_4_3_u01_r4_network.node[23].content_store 	hits[23] 	3468
scalar tree_4_3_u01_r4_network.node[23].content_store 	misses[23] 	8830
scalar tree_4_3_u01_r4_network.node[23].content_store 	decision_yes[23] 	365
scalar tree_4_3_u01_r4_network.node[23].content_store 	decision_no[23] 	8465
scalar tree_4_3_u01_r4_network.node[23].content_store 	decision_ratio[23] 	0.041336353340883
scalar tree_4_3_u01_r4_network.node[24].core_layer 	interests[24] 	12211
scalar tree_4_3_u01_r4_network.node[24].core_layer 	data[24] 	8756
scalar tree_4_3_u01_r4_network.node[24].content_store 	p_hit[24] 	0.28294161002375
scalar tree_4_3_u01_r4_network.node[24].content_store 	hits[24] 	3455
scalar tree_4_3_u01_r4_network.node[24].content_store 	misses[24] 	8756
scalar tree_4_3_u01_r4_network.node[24].content_store 	decision_yes[24] 	366
scalar tree_4_3_u01_r4_network.node[24].content_store 	decision_no[24] 	8390
scalar tree_4_3_u01_r4_network.node[24].content_store 	decision_ratio[24] 	0.041799908634079
scalar tree_4_3_u01_r4_network.node[25].core_layer 	interests[25] 	12331
scalar tree_4_3_u01_r4_network.node[25].core_layer 	data[25] 	8835
scalar tree_4_3_u01_r4_network.node[25].content_store 	p_hit[25] 	0.28343200064877
scalar tree_4_3_u01_r4_network.node[25].content_store 	hits[25] 	3495
scalar tree_4_3_u01_r4_network.node[25].content_store 	misses[25] 	8836
scalar tree_4_3_u01_r4_network.node[25].content_store 	decision_yes[25] 	369
scalar tree_4_3_u01_r4_network.node[25].content_store 	decision_no[25] 	8466
scalar tree_4_3_u01_r4_network.node[25].content_store 	decision_ratio[25] 	0.041765704584041
scalar tree_4_3_u01_r4_network.node[26].core_layer 	interests[26] 	12135
scalar tree_4_3_u01_r4_network.node[26].core_layer 	data[26] 	8619
scalar tree_4_3_u01_r4_network.node[26].content_store 	p_hit[26] 	0.28974042027194
scalar tree_4_3_u01_r4_network.node[26].content_store 	hits[26] 	3516
scalar tree_4_3_u01_r4_network.node[26].content_store 	misses[26] 	8619
scalar tree_4_3_u01_r4_network.node[26].content_store 	decision_yes[26] 	360
scalar tree_4_3_u01_r4_network.node[26].content_store 	decision_no[26] 	8259
scalar tree_4_3_u01_r4_network.node[26].content_store 	decision_ratio[26] 	0.041768186564567
scalar tree_4_3_u01_r4_network.node[27].core_layer 	interests[27] 	12146
scalar tree_4_3_u01_r4_network.node[27].core_layer 	data[27] 	8695
scalar tree_4_3_u01_r4_network.node[27].content_store 	p_hit[27] 	0.28420879301828
scalar tree_4_3_u01_r4_network.node[27].content_store 	hits[27] 	3452
scalar tree_4_3_u01_r4_network.node[27].content_store 	misses[27] 	8694
scalar tree_4_3_u01_r4_network.node[27].content_store 	decision_yes[27] 	381
scalar tree_4_3_u01_r4_network.node[27].content_store 	decision_no[27] 	8314
scalar tree_4_3_u01_r4_network.node[27].content_store 	decision_ratio[27] 	0.043818286371478
scalar tree_4_3_u01_r4_network.node[28].core_layer 	interests[28] 	12100
scalar tree_4_3_u01_r4_network.node[28].core_layer 	data[28] 	8661
scalar tree_4_3_u01_r4_network.node[28].content_store 	p_hit[28] 	0.28421487603306
scalar tree_4_3_u01_r4_network.node[28].content_store 	hits[28] 	3439
scalar tree_4_3_u01_r4_network.node[28].content_store 	misses[28] 	8661
scalar tree_4_3_u01_r4_network.node[28].content_store 	decision_yes[28] 	381
scalar tree_4_3_u01_r4_network.node[28].content_store 	decision_no[28] 	8280
scalar tree_4_3_u01_r4_network.node[28].content_store 	decision_ratio[28] 	0.043990301350883
scalar tree_4_3_u01_r4_network.node[29].core_layer 	interests[29] 	12196
scalar tree_4_3_u01_r4_network.node[29].core_layer 	data[29] 	8684
scalar tree_4_3_u01_r4_network.node[29].content_store 	p_hit[29] 	0.2879632666448
scalar tree_4_3_u01_r4_network.node[29].content_store 	hits[29] 	3512
scalar tree_4_3_u01_r4_network.node[29].content_store 	misses[29] 	8684
scalar tree_4_3_u01_r4_network.node[29].content_store 	decision_yes[29] 	368
scalar tree_4_3_u01_r4_network.node[29].content_store 	decision_no[29] 	8316
scalar tree_4_3_u01_r4_network.node[29].content_store 	decision_ratio[29] 	0.042376784891755
scalar tree_4_3_u01_r4_network.node[30].core_layer 	interests[30] 	12198
scalar tree_4_3_u01_r4_network.node[30].core_layer 	data[30] 	8684
scalar tree_4_3_u01_r4_network.node[30].content_store 	p_hit[30] 	0.2880800131169
scalar tree_4_3_u01_r4_network.node[30].content_store 	hits[30] 	3514
scalar tree_4_3_u01_r4_network.node[30].content_store 	misses[30] 	8684
scalar tree_4_3_u01_r4_network.node[30].content_store 	decision_yes[30] 	351
scalar tree_4_3_u01_r4_network.node[30].content_store 	decision_no[30] 	8333
scalar tree_4_3_u01_r4_network.node[30].content_store 	decision_ratio[30] 	0.040419161676647
scalar tree_4_3_u01_r4_network.node[31].core_layer 	interests[31] 	12270
scalar tree_4_3_u01_r4_network.node[31].core_layer 	data[31] 	8785
scalar tree_4_3_u01_r4_network.node[31].content_store 	p_hit[31] 	0.2840260798696
scalar tree_4_3_u01_r4_network.node[31].content_store 	hits[31] 	3485
scalar tree_4_3_u01_r4_network.node[31].content_store 	misses[31] 	8785
scalar tree_4_3_u01_r4_network.node[31].content_store 	decision_yes[31] 	387
scalar tree_4_3_u01_r4_network.node[31].content_store 	decision_no[31] 	8398
scalar tree_4_3_u01_r4_network.node[31].content_store 	decision_ratio[31] 	0.044052361980649
scalar tree_4_3_u01_r4_network.node[32].core_layer 	interests[32] 	12203
scalar tree_4_3_u01_r4_network.node[32].core_layer 	data[32] 	8671
scalar tree_4_3_u01_r4_network.node[32].content_store 	p_hit[32] 	0.2894370236827
scalar tree_4_3_u01_r4_network.node[32].content_store 	hits[32] 	3532
scalar tree_4_3_u01_r4_network.node[32].content_store 	misses[32] 	8671
scalar tree_4_3_u01_r4_network.node[32].content_store 	decision_yes[32] 	424
scalar tree_4_3_u01_r4_network.node[32].content_store 	decision_no[32] 	8247
scalar tree_4_3_u01_r4_network.node[32].content_store 	decision_ratio[32] 	0.048898627609272
scalar tree_4_3_u01_r4_network.node[33].core_layer 	interests[33] 	12253
scalar tree_4_3_u01_r4_network.node[33].core_layer 	data[33] 	8788
scalar tree_4_3_u01_r4_network.node[33].content_store 	p_hit[33] 	0.28278788868032
scalar tree_4_3_u01_r4_network.node[33].content_store 	hits[33] 	3465
scalar tree_4_3_u01_r4_network.node[33].content_store 	misses[33] 	8788
scalar tree_4_3_u01_r4_network.node[33].content_store 	decision_yes[33] 	379
scalar tree_4_3_u01_r4_network.node[33].content_store 	decision_no[33] 	8409
scalar tree_4_3_u01_r4_network.node[33].content_store 	decision_ratio[33] 	0.043126991351843
scalar tree_4_3_u01_r4_network.node[34].core_layer 	interests[34] 	12641
scalar tree_4_3_u01_r4_network.node[34].core_layer 	data[34] 	8894
scalar tree_4_3_u01_r4_network.node[34].content_store 	p_hit[34] 	0.29641642275136
scalar tree_4_3_u01_r4_network.node[34].content_store 	hits[34] 	3747
scalar tree_4_3_u01_r4_network.node[34].content_store 	misses[34] 	8894
scalar tree_4_3_u01_r4_network.node[34].content_store 	decision_yes[34] 	641
scalar tree_4_3_u01_r4_network.node[34].content_store 	decision_no[34] 	8253
scalar tree_4_3_u01_r4_network.node[34].content_store 	decision_ratio[34] 	0.072071059140994
scalar tree_4_3_u01_r4_network.node[35].core_layer 	interests[35] 	12234
scalar tree_4_3_u01_r4_network.node[35].core_layer 	data[35] 	8789
scalar tree_4_3_u01_r4_network.node[35].content_store 	p_hit[35] 	0.28159228379925
scalar tree_4_3_u01_r4_network.node[35].content_store 	hits[35] 	3445
scalar tree_4_3_u01_r4_network.node[35].content_store 	misses[35] 	8789
scalar tree_4_3_u01_r4_network.node[35].content_store 	decision_yes[35] 	333
scalar tree_4_3_u01_r4_network.node[35].content_store 	decision_no[35] 	8456
scalar tree_4_3_u01_r4_network.node[35].content_store 	decision_ratio[35] 	0.037888269427694
scalar tree_4_3_u01_r4_network.node[36].core_layer 	interests[36] 	12155
scalar tree_4_3_u01_r4_network.node[36].core_layer 	data[36] 	8778
scalar tree_4_3_u01_r4_network.node[36].content_store 	p_hit[36] 	0.27782805429864
scalar tree_4_3_u01_r4_network.node[36].content_store 	hits[36] 	3377
scalar tree_4_3_u01_r4_network.node[36].content_store 	misses[36] 	8778
scalar tree_4_3_u01_r4_network.node[36].content_store 	decision_yes[36] 	344
scalar tree_4_3_u01_r4_network.node[36].content_store 	decision_no[36] 	8434
scalar tree_4_3_u01_r4_network.node[36].content_store 	decision_ratio[36] 	0.039188881294144
scalar tree_4_3_u01_r4_network.node[37].core_layer 	interests[37] 	12452
scalar tree_4_3_u01_r4_network.node[37].core_layer 	data[37] 	8821
scalar tree_4_3_u01_r4_network.node[37].content_store 	p_hit[37] 	0.29151943462898
scalar tree_4_3_u01_r4_network.node[37].content_store 	hits[37] 	3630
scalar tree_4_3_u01_r4_network.node[37].content_store 	misses[37] 	8822
scalar tree_4_3_u01_r4_network.node[37].content_store 	decision_yes[37] 	649
scalar tree_4_3_u01_r4_network.node[37].content_store 	decision_no[37] 	8172
scalar tree_4_3_u01_r4_network.node[37].content_store 	decision_ratio[37] 	0.073574424668405
scalar tree_4_3_u01_r4_network.node[38].core_layer 	interests[38] 	12367
scalar tree_4_3_u01_r4_network.node[38].core_layer 	data[38] 	9003
scalar tree_4_3_u01_r4_network.node[38].content_store 	p_hit[38] 	0.27201423142233
scalar tree_4_3_u01_r4_network.node[38].content_store 	hits[38] 	3364
scalar tree_4_3_u01_r4_network.node[38].content_store 	misses[38] 	9003
scalar tree_4_3_u01_r4_network.node[38].content_store 	decision_yes[38] 	346
scalar tree_4_3_u01_r4_network.node[38].content_store 	decision_no[38] 	8657
scalar tree_4_3_u01_r4_network.node[38].content_store 	decision_ratio[38] 	0.038431633899811
scalar tree_4_3_u01_r4_network.node[39].core_layer 	interests[39] 	12230
scalar tree_4_3_u01_r4_network.node[39].core_layer 	data[39] 	8765
scalar tree_4_3_u01_r4_network.node[39].content_store 	p_hit[39] 	0.28331970564186
scalar tree_4_3_u01_r4_network.node[39].content_store 	hits[39] 	3465
scalar tree_4_3_u01_r4_network.node[39].content_store 	misses[39] 	8765
scalar tree_4_3_u01_r4_network.node[39].content_store 	decision_yes[39] 	348
scalar tree_4_3_u01_r4_network.node[39].content_store 	decision_no[39] 	8417
scalar tree_4_3_u01_r4_network.node[39].content_store 	decision_ratio[39] 	0.039703365658871
scalar tree_4_3_u01_r4_network.client[13] 	hdistance[13] 	2.7226253023101
scalar tree_4_3_u01_r4_network.client[13] 	downloads[13] 	11991
scalar tree_4_3_u01_r4_network.client[13] 	avg_time[13] 	0.004148108076
scalar tree_4_3_u01_r4_network.client[14] 	hdistance[14] 	2.7514484843396
scalar tree_4_3_u01_r4_network.client[14] 	downloads[14] 	11909
scalar tree_4_3_u01_r4_network.client[14] 	avg_time[14] 	0.004189433565
scalar tree_4_3_u01_r4_network.client[15] 	hdistance[15] 	2.7436371272574
scalar tree_4_3_u01_r4_network.client[15] 	downloads[15] 	11905
scalar tree_4_3_u01_r4_network.client[15] 	avg_time[15] 	0.004180072143
scalar tree_4_3_u01_r4_network.client[16] 	hdistance[16] 	2.760232931049
scalar tree_4_3_u01_r4_network.client[16] 	downloads[16] 	11849
scalar tree_4_3_u01_r4_network.client[16] 	avg_time[16] 	0.004205752811
scalar tree_4_3_u01_r4_network.client[17] 	hdistance[17] 	2.7600066990454
scalar tree_4_3_u01_r4_network.client[17] 	downloads[17] 	11942
scalar tree_4_3_u01_r4_network.client[17] 	avg_time[17] 	0.004208002374
scalar tree_4_3_u01_r4_network.client[18] 	hdistance[18] 	2.747754491018
scalar tree_4_3_u01_r4_network.client[18] 	downloads[18] 	12024
scalar tree_4_3_u01_r4_network.client[18] 	avg_time[18] 	0.004188928389
scalar tree_4_3_u01_r4_network.client[19] 	hdistance[19] 	2.7349026784229
scalar tree_4_3_u01_r4_network.client[19] 	downloads[19] 	12022
scalar tree_4_3_u01_r4_network.client[19] 	avg_time[19] 	0.00415891651
scalar tree_4_3_u01_r4_network.client[20] 	hdistance[20] 	2.7416767293428
scalar tree_4_3_u01_r4_network.client[20] 	downloads[20] 	11594
scalar tree_4_3_u01_r4_network.client[20] 	avg_time[20] 	0.004180435255
scalar tree_4_3_u01_r4_network.client[21] 	hdistance[21] 	2.7447387967319
scalar tree_4_3_u01_r4_network.client[21] 	downloads[21] 	12117
scalar tree_4_3_u01_r4_network.client[21] 	avg_time[21] 	0.00418490405
scalar tree_4_3_u01_r4_network.client[22] 	hdistance[22] 	2.7565659881812
scalar tree_4_3_u01_r4_network.client[22] 	downloads[22] 	12184
scalar tree_4_3_u01_r4_network.client[22] 	avg_time[22] 	0.00420288602
scalar tree_4_3_u01_r4_network.client[23] 	hdistance[23] 	2.7602146099876
scalar tree_4_3_u01_r4_network.client[23] 	downloads[23] 	12115
scalar tree_4_3_u01_r4_network.client[23] 	avg_time[23] 	0.004205032062
scalar tree_4_3_u01_r4_network.client[24] 	hdistance[24] 	2.7496676636756
scalar tree_4_3_u01_r4_network.client[24] 	downloads[24] 	12036
scalar tree_4_3_u01_r4_network.client[24] 	avg_time[24] 	0.004193250599
scalar tree_4_3_u01_r4_network.client[25] 	hdistance[25] 	2.7495673671199
scalar tree_4_3_u01_r4_network.client[25] 	downloads[25] 	12135
scalar tree_4_3_u01_r4_network.client[25] 	avg_time[25] 	0.004190520214
scalar tree_4_3_u01_r4_network.client[26] 	hdistance[26] 	2.7319198860303
scalar tree_4_3_u01_r4_network.client[26] 	downloads[26] 	11933
scalar tree_4_3_u01_r4_network.client[26] 	avg_time[26] 	0.004164247437
scalar tree_4_3_u01_r4_network.client[27] 	hdistance[27] 	2.741703586057
scalar tree_4_3_u01_r4_network.client[27] 	downloads[27] 	11963
scalar tree_4_3_u01_r4_network.client[27] 	avg_time[27] 	0.004182252419
scalar tree_4_3_u01_r4_network.client[28] 	hdistance[28] 	2.7466363942146
scalar tree_4_3_u01_r4_network.client[28] 	downloads[28] 	11892
scalar tree_4_3_u01_r4_network.client[28] 	avg_time[28] 	0.004188527104
scalar tree_4_3_u01_r4_network.client[29] 	hdistance[29] 	2.7329218450246
scalar tree_4_3_u01_r4_network.client[29] 	downloads[29] 	11989
scalar tree_4_3_u01_r4_network.client[29] 	avg_time[29] 	0.004166316142
scalar tree_4_3_u01_r4_network.client[30] 	hdistance[30] 	2.7387169433553
scalar tree_4_3_u01_r4_network.client[30] 	downloads[30] 	11987
scalar tree_4_3_u01_r4_network.client[30] 	avg_time[30] 	0.004175186807
scalar tree_4_3_u01_r4_network.client[31] 	hdistance[31] 	2.7513793679987
scalar tree_4_3_u01_r4_network.client[31] 	downloads[31] 	11962
scalar tree_4_3_u01_r4_network.client[31] 	avg_time[31] 	0.004198793168
scalar tree_4_3_u01_r4_network.client[32] 	hdistance[32] 	2.7132931525197
scalar tree_4_3_u01_r4_network.client[32] 	downloads[32] 	11946
scalar tree_4_3_u01_r4_network.client[32] 	avg_time[32] 	0.004140462461
scalar tree_4_3_u01_r4_network.client[33] 	hdistance[33] 	2.753256513026
scalar tree_4_3_u01_r4_network.client[33] 	downloads[33] 	11976
scalar tree_4_3_u01_r4_network.client[33] 	avg_time[33] 	0.004199562806
scalar tree_4_3_u01_r4_network.client[34] 	hdistance[34] 	2.7132025712873
scalar tree_4_3_u01_r4_network.client[34] 	downloads[34] 	12134
scalar tree_4_3_u01_r4_network.client[34] 	avg_time[34] 	0.004134425073
scalar tree_4_3_u01_r4_network.client[35] 	hdistance[35] 	2.7453688389018
scalar tree_4_3_u01_r4_network.client[35] 	downloads[35] 	12092
scalar tree_4_3_u01_r4_network.client[35] 	avg_time[35] 	0.004192190171
scalar tree_4_3_u01_r4_network.client[36] 	hdistance[36] 	2.7601832569763
scalar tree_4_3_u01_r4_network.client[36] 	downloads[36] 	12005
scalar tree_4_3_u01_r4_network.client[36] 	avg_time[36] 	0.004214740847
scalar tree_4_3_u01_r4_network.client[37] 	hdistance[37] 	2.7237402857859
scalar tree_4_3_u01_r4_network.client[37] 	downloads[37] 	11967
scalar tree_4_3_u01_r4_network.client[37] 	avg_time[37] 	0.004151665064
scalar tree_4_3_u01_r4_network.client[38] 	hdistance[38] 	2.7827081801095
scalar tree_4_3_u01_r4_network.client[38] 	downloads[38] 	12237
scalar tree_4_3_u01_r4_network.client[38] 	avg_time[38] 	0.004246092584
scalar tree_4_3_u01_r4_network.client[39] 	hdistance[39] 	2.7380302654428
scalar tree_4_3_u01_r4_network.client[39] 	downloads[39] 	12093
scalar tree_4_3_u01_r4_network.client[39] 	avg_time[39] 	0.004179108843
