version 2
run General-33-20160819-11:06:43-2054
attr a 0.9
attr cd lcd
attr configname General
attr cr lru
attr datetime 20160819-11:06:43
attr experiment General
attr fsize 1
attr inifile hw5115/scenario_A/NRR-LCD.ini
attr iterationvars "$name=tree_4_3, $un=01, $rep=14, $cd=lcd, $cr=lru, $fsize=1, $a=0.9, $sl=nrr, $ttl=1000, $variance=0.05"
attr iterationvars2 "$name=tree_4_3, $un=01, $rep=14, $cd=lcd, $cr=lru, $fsize=1, $a=0.9, $sl=nrr, $ttl=1000, $variance=0.05, $repetition=0"
attr measurement "$name=tree_4_3, $un=01, $rep=14, $cd=lcd, $cr=lru, $fsize=1, $a=0.9, $sl=nrr, $ttl=1000, $variance=0.05"
attr name tree_4_3
attr network networks.${name}_u${un}_r${rep}_network
attr processid 2054
attr rep 14
attr repetition 0
attr replication #0
attr resultdir results
attr runnumber 33
attr seedset 14
attr sl nrr
attr ttl 1000
attr un 01
attr variance 0.05

scalar . 	a 	0.9
scalar . 	fsize 	1
scalar . 	rep 	14
scalar . 	ttl 	1000
scalar . 	un 	01
scalar . 	variance 	0.05
scalar tree_4_3_u01_r14_network.content_distribution 	repo-0 	0
scalar tree_4_3_u01_r14_network.content_distribution 	client-0 	13
scalar tree_4_3_u01_r14_network.content_distribution 	client-1 	14
scalar tree_4_3_u01_r14_network.content_distribution 	client-2 	15
scalar tree_4_3_u01_r14_network.content_distribution 	client-3 	16
scalar tree_4_3_u01_r14_network.content_distribution 	client-4 	17
scalar tree_4_3_u01_r14_network.content_distribution 	client-5 	18
scalar tree_4_3_u01_r14_network.content_distribution 	client-6 	19
scalar tree_4_3_u01_r14_network.content_distribution 	client-7 	20
scalar tree_4_3_u01_r14_network.content_distribution 	client-8 	21
scalar tree_4_3_u01_r14_network.content_distribution 	client-9 	22
scalar tree_4_3_u01_r14_network.content_distribution 	client-10 	23
scalar tree_4_3_u01_r14_network.content_distribution 	client-11 	24
scalar tree_4_3_u01_r14_network.content_distribution 	client-12 	25
scalar tree_4_3_u01_r14_network.content_distribution 	client-13 	26
scalar tree_4_3_u01_r14_network.content_distribution 	client-14 	27
scalar tree_4_3_u01_r14_network.content_distribution 	client-15 	28
scalar tree_4_3_u01_r14_network.content_distribution 	client-16 	29
scalar tree_4_3_u01_r14_network.content_distribution 	client-17 	30
scalar tree_4_3_u01_r14_network.content_distribution 	client-18 	31
scalar tree_4_3_u01_r14_network.content_distribution 	client-19 	32
scalar tree_4_3_u01_r14_network.content_distribution 	client-20 	33
scalar tree_4_3_u01_r14_network.content_distribution 	client-21 	34
scalar tree_4_3_u01_r14_network.content_distribution 	client-22 	35
scalar tree_4_3_u01_r14_network.content_distribution 	client-23 	36
scalar tree_4_3_u01_r14_network.content_distribution 	client-24 	37
scalar tree_4_3_u01_r14_network.content_distribution 	client-25 	38
scalar tree_4_3_u01_r14_network.content_distribution 	client-26 	39
scalar tree_4_3_u01_r14_network.content_distribution 	repo-0_card 	100000
scalar tree_4_3_u01_r14_network.content_distribution 	repo-0_price 	0
scalar tree_4_3_u01_r14_network.statistics 	stabilization_time 	690.1
scalar tree_4_3_u01_r14_network.statistics 	p_hit 	0.20647531474863
scalar tree_4_3_u01_r14_network.statistics 	interests 	25136.525
scalar tree_4_3_u01_r14_network.statistics 	data 	17004.95
scalar tree_4_3_u01_r14_network.statistics 	hdistance 	2.7429517158209
scalar tree_4_3_u01_r14_network.statistics 	avg_time 	0.004182490957
scalar tree_4_3_u01_r14_network.statistics 	downloads 	325258
scalar tree_4_3_u01_r14_network.statistics 	total_cost 	0
scalar tree_4_3_u01_r14_network.statistics 	total_replicas 	100000
scalar tree_4_3_u01_r14_network.statistics 	inner_hit 	0.34830811232929
scalar tree_4_3_u01_r14_network.node[0].core_layer 	interests[0] 	213565
scalar tree_4_3_u01_r14_network.node[0].core_layer 	repo_load[0] 	211968
scalar tree_4_3_u01_r14_network.node[0].core_layer 	data[0] 	0
scalar tree_4_3_u01_r14_network.node[0].core_layer 	repo_int[0] 	211968
scalar tree_4_3_u01_r14_network.node[0].content_store 	p_hit[0] 	0.0074778170580385
scalar tree_4_3_u01_r14_network.node[0].content_store 	hits[0] 	1597
scalar tree_4_3_u01_r14_network.node[0].content_store 	misses[0] 	211968
scalar tree_4_3_u01_r14_network.node[0].content_store 	decision_yes[0] 	211968
scalar tree_4_3_u01_r14_network.node[0].content_store 	decision_no[0] 	0
scalar tree_4_3_u01_r14_network.node[0].content_store 	decision_ratio[0] 	1
scalar tree_4_3_u01_r14_network.node[1].core_layer 	interests[1] 	73508
scalar tree_4_3_u01_r14_network.node[1].core_layer 	data[1] 	72108
scalar tree_4_3_u01_r14_network.node[1].content_store 	p_hit[1] 	0.019045546063014
scalar tree_4_3_u01_r14_network.node[1].content_store 	hits[1] 	1400
scalar tree_4_3_u01_r14_network.node[1].content_store 	misses[1] 	72108
scalar tree_4_3_u01_r14_network.node[1].content_store 	decision_yes[1] 	1286
scalar tree_4_3_u01_r14_network.node[1].content_store 	decision_no[1] 	70822
scalar tree_4_3_u01_r14_network.node[1].content_store 	decision_ratio[1] 	0.017834359571753
scalar tree_4_3_u01_r14_network.node[2].core_layer 	interests[2] 	73028
scalar tree_4_3_u01_r14_network.node[2].core_layer 	data[2] 	71747
scalar tree_4_3_u01_r14_network.node[2].content_store 	p_hit[2] 	0.017554910445309
scalar tree_4_3_u01_r14_network.node[2].content_store 	hits[2] 	1282
scalar tree_4_3_u01_r14_network.node[2].content_store 	misses[2] 	71746
scalar tree_4_3_u01_r14_network.node[2].content_store 	decision_yes[2] 	1065
scalar tree_4_3_u01_r14_network.node[2].content_store 	decision_no[2] 	70682
scalar tree_4_3_u01_r14_network.node[2].content_store 	decision_ratio[2] 	0.014843826222699
scalar tree_4_3_u01_r14_network.node[3].core_layer 	interests[3] 	73980
scalar tree_4_3_u01_r14_network.node[3].core_layer 	data[3] 	72486
scalar tree_4_3_u01_r14_network.node[3].content_store 	p_hit[3] 	0.020181130035145
scalar tree_4_3_u01_r14_network.node[3].content_store 	hits[3] 	1493
scalar tree_4_3_u01_r14_network.node[3].content_store 	misses[3] 	72487
scalar tree_4_3_u01_r14_network.node[3].content_store 	decision_yes[3] 	1332
scalar tree_4_3_u01_r14_network.node[3].content_store 	decision_no[3] 	71154
scalar tree_4_3_u01_r14_network.node[3].content_store 	decision_ratio[3] 	0.01837596225478
scalar tree_4_3_u01_r14_network.node[4].core_layer 	interests[4] 	35234
scalar tree_4_3_u01_r14_network.node[4].core_layer 	data[4] 	33469
scalar tree_4_3_u01_r14_network.node[4].content_store 	p_hit[4] 	0.050093659533405
scalar tree_4_3_u01_r14_network.node[4].content_store 	hits[4] 	1765
scalar tree_4_3_u01_r14_network.node[4].content_store 	misses[4] 	33469
scalar tree_4_3_u01_r14_network.node[4].content_store 	decision_yes[4] 	1486
scalar tree_4_3_u01_r14_network.node[4].content_store 	decision_no[4] 	31983
scalar tree_4_3_u01_r14_network.node[4].content_store 	decision_ratio[4] 	0.04439929486988
scalar tree_4_3_u01_r14_network.node[5].core_layer 	interests[5] 	26585
scalar tree_4_3_u01_r14_network.node[5].core_layer 	data[5] 	25216
scalar tree_4_3_u01_r14_network.node[5].content_store 	p_hit[5] 	0.051495204062441
scalar tree_4_3_u01_r14_network.node[5].content_store 	hits[5] 	1369
scalar tree_4_3_u01_r14_network.node[5].content_store 	misses[5] 	25216
scalar tree_4_3_u01_r14_network.node[5].content_store 	decision_yes[5] 	1214
scalar tree_4_3_u01_r14_network.node[5].content_store 	decision_no[5] 	24002
scalar tree_4_3_u01_r14_network.node[5].content_store 	decision_ratio[5] 	0.048144035532995
scalar tree_4_3_u01_r14_network.node[6].core_layer 	interests[6] 	18260
scalar tree_4_3_u01_r14_network.node[6].core_layer 	data[6] 	16995
scalar tree_4_3_u01_r14_network.node[6].content_store 	p_hit[6] 	0.069222343921139
scalar tree_4_3_u01_r14_network.node[6].content_store 	hits[6] 	1264
scalar tree_4_3_u01_r14_network.node[6].content_store 	misses[6] 	16996
scalar tree_4_3_u01_r14_network.node[6].content_store 	decision_yes[6] 	872
scalar tree_4_3_u01_r14_network.node[6].content_store 	decision_no[6] 	16123
scalar tree_4_3_u01_r14_network.node[6].content_store 	decision_ratio[6] 	0.051309208590762
scalar tree_4_3_u01_r14_network.node[7].core_layer 	interests[7] 	26188
scalar tree_4_3_u01_r14_network.node[7].core_layer 	data[7] 	25011
scalar tree_4_3_u01_r14_network.node[7].content_store 	p_hit[7] 	0.044944249274477
scalar tree_4_3_u01_r14_network.node[7].content_store 	hits[7] 	1177
scalar tree_4_3_u01_r14_network.node[7].content_store 	misses[7] 	25011
scalar tree_4_3_u01_r14_network.node[7].content_store 	decision_yes[7] 	947
scalar tree_4_3_u01_r14_network.node[7].content_store 	decision_no[7] 	24064
scalar tree_4_3_u01_r14_network.node[7].content_store 	decision_ratio[7] 	0.037863340130343
scalar tree_4_3_u01_r14_network.node[8].core_layer 	interests[8] 	35645
scalar tree_4_3_u01_r14_network.node[8].core_layer 	data[8] 	33620
scalar tree_4_3_u01_r14_network.node[8].content_store 	p_hit[8] 	0.056810211810913
scalar tree_4_3_u01_r14_network.node[8].content_store 	hits[8] 	2025
scalar tree_4_3_u01_r14_network.node[8].content_store 	misses[8] 	33620
scalar tree_4_3_u01_r14_network.node[8].content_store 	decision_yes[8] 	1719
scalar tree_4_3_u01_r14_network.node[8].content_store 	decision_no[8] 	31901
scalar tree_4_3_u01_r14_network.node[8].content_store 	decision_ratio[8] 	0.051130279595479
scalar tree_4_3_u01_r14_network.node[9].core_layer 	interests[9] 	17778
scalar tree_4_3_u01_r14_network.node[9].core_layer 	data[9] 	16606
scalar tree_4_3_u01_r14_network.node[9].content_store 	p_hit[9] 	0.065924175947801
scalar tree_4_3_u01_r14_network.node[9].content_store 	hits[9] 	1172
scalar tree_4_3_u01_r14_network.node[9].content_store 	misses[9] 	16606
scalar tree_4_3_u01_r14_network.node[9].content_store 	decision_yes[9] 	825
scalar tree_4_3_u01_r14_network.node[9].content_store 	decision_no[9] 	15781
scalar tree_4_3_u01_r14_network.node[9].content_store 	decision_ratio[9] 	0.049680838251234
scalar tree_4_3_u01_r14_network.node[10].core_layer 	interests[10] 	26782
scalar tree_4_3_u01_r14_network.node[10].core_layer 	data[10] 	25415
scalar tree_4_3_u01_r14_network.node[10].content_store 	p_hit[10] 	0.051004405944291
scalar tree_4_3_u01_r14_network.node[10].content_store 	hits[10] 	1366
scalar tree_4_3_u01_r14_network.node[10].content_store 	misses[10] 	25416
scalar tree_4_3_u01_r14_network.node[10].content_store 	decision_yes[10] 	1064
scalar tree_4_3_u01_r14_network.node[10].content_store 	decision_no[10] 	24351
scalar tree_4_3_u01_r14_network.node[10].content_store 	decision_ratio[10] 	0.041865040330513
scalar tree_4_3_u01_r14_network.node[11].core_layer 	interests[11] 	26502
scalar tree_4_3_u01_r14_network.node[11].core_layer 	data[11] 	25141
scalar tree_4_3_u01_r14_network.node[11].content_store 	p_hit[11] 	0.051354614746057
scalar tree_4_3_u01_r14_network.node[11].content_store 	hits[11] 	1361
scalar tree_4_3_u01_r14_network.node[11].content_store 	misses[11] 	25141
scalar tree_4_3_u01_r14_network.node[11].content_store 	decision_yes[11] 	1186
scalar tree_4_3_u01_r14_network.node[11].content_store 	decision_no[11] 	23955
scalar tree_4_3_u01_r14_network.node[11].content_store 	decision_ratio[11] 	0.04717393898413
scalar tree_4_3_u01_r14_network.node[12].core_layer 	interests[12] 	26813
scalar tree_4_3_u01_r14_network.node[12].core_layer 	data[12] 	25373
scalar tree_4_3_u01_r14_network.node[12].content_store 	p_hit[12] 	0.053705292209003
scalar tree_4_3_u01_r14_network.node[12].content_store 	hits[12] 	1440
scalar tree_4_3_u01_r14_network.node[12].content_store 	misses[12] 	25373
scalar tree_4_3_u01_r14_network.node[12].content_store 	decision_yes[12] 	1193
scalar tree_4_3_u01_r14_network.node[12].content_store 	decision_no[12] 	24180
scalar tree_4_3_u01_r14_network.node[12].content_store 	decision_ratio[12] 	0.047018484215505
scalar tree_4_3_u01_r14_network.node[13].core_layer 	interests[13] 	12379
scalar tree_4_3_u01_r14_network.node[13].core_layer 	data[13] 	8775
scalar tree_4_3_u01_r14_network.node[13].content_store 	p_hit[13] 	0.29113821794975
scalar tree_4_3_u01_r14_network.node[13].content_store 	hits[13] 	3604
scalar tree_4_3_u01_r14_network.node[13].content_store 	misses[13] 	8775
scalar tree_4_3_u01_r14_network.node[13].content_store 	decision_yes[13] 	371
scalar tree_4_3_u01_r14_network.node[13].content_store 	decision_no[13] 	8404
scalar tree_4_3_u01_r14_network.node[13].content_store 	decision_ratio[13] 	0.042279202279202
scalar tree_4_3_u01_r14_network.node[14].core_layer 	interests[14] 	12324
scalar tree_4_3_u01_r14_network.node[14].core_layer 	data[14] 	8851
scalar tree_4_3_u01_r14_network.node[14].content_store 	p_hit[14] 	0.28180785459266
scalar tree_4_3_u01_r14_network.node[14].content_store 	hits[14] 	3473
scalar tree_4_3_u01_r14_network.node[14].content_store 	misses[14] 	8851
scalar tree_4_3_u01_r14_network.node[14].content_store 	decision_yes[14] 	409
scalar tree_4_3_u01_r14_network.node[14].content_store 	decision_no[14] 	8442
scalar tree_4_3_u01_r14_network.node[14].content_store 	decision_ratio[14] 	0.046209467856739
scalar tree_4_3_u01_r14_network.node[15].core_layer 	interests[15] 	12263
scalar tree_4_3_u01_r14_network.node[15].core_layer 	data[15] 	8704
scalar tree_4_3_u01_r14_network.node[15].content_store 	p_hit[15] 	0.29022262089211
scalar tree_4_3_u01_r14_network.node[15].content_store 	hits[15] 	3559
scalar tree_4_3_u01_r14_network.node[15].content_store 	misses[15] 	8704
scalar tree_4_3_u01_r14_network.node[15].content_store 	decision_yes[15] 	402
scalar tree_4_3_u01_r14_network.node[15].content_store 	decision_no[15] 	8302
scalar tree_4_3_u01_r14_network.node[15].content_store 	decision_ratio[15] 	0.046185661764706
scalar tree_4_3_u01_r14_network.node[16].core_layer 	interests[16] 	12165
scalar tree_4_3_u01_r14_network.node[16].core_layer 	data[16] 	8724
scalar tree_4_3_u01_r14_network.node[16].content_store 	p_hit[16] 	0.28286066584464
scalar tree_4_3_u01_r14_network.node[16].content_store 	hits[16] 	3441
scalar tree_4_3_u01_r14_network.node[16].content_store 	misses[16] 	8724
scalar tree_4_3_u01_r14_network.node[16].content_store 	decision_yes[16] 	380
scalar tree_4_3_u01_r14_network.node[16].content_store 	decision_no[16] 	8344
scalar tree_4_3_u01_r14_network.node[16].content_store 	decision_ratio[16] 	0.043558000917011
scalar tree_4_3_u01_r14_network.node[17].core_layer 	interests[17] 	12043
scalar tree_4_3_u01_r14_network.node[17].core_layer 	data[17] 	8545
scalar tree_4_3_u01_r14_network.node[17].content_store 	p_hit[17] 	0.29045918790999
scalar tree_4_3_u01_r14_network.node[17].content_store 	hits[17] 	3498
scalar tree_4_3_u01_r14_network.node[17].content_store 	misses[17] 	8545
scalar tree_4_3_u01_r14_network.node[17].content_store 	decision_yes[17] 	382
scalar tree_4_3_u01_r14_network.node[17].content_store 	decision_no[17] 	8163
scalar tree_4_3_u01_r14_network.node[17].content_store 	decision_ratio[17] 	0.044704505558806
scalar tree_4_3_u01_r14_network.node[18].core_layer 	interests[18] 	12359
scalar tree_4_3_u01_r14_network.node[18].core_layer 	data[18] 	9001
scalar tree_4_3_u01_r14_network.node[18].content_store 	p_hit[18] 	0.2717048304879
scalar tree_4_3_u01_r14_network.node[18].content_store 	hits[18] 	3358
scalar tree_4_3_u01_r14_network.node[18].content_store 	misses[18] 	9001
scalar tree_4_3_u01_r14_network.node[18].content_store 	decision_yes[18] 	391
scalar tree_4_3_u01_r14_network.node[18].content_store 	decision_no[18] 	8610
scalar tree_4_3_u01_r14_network.node[18].content_store 	decision_ratio[18] 	0.043439617820242
scalar tree_4_3_u01_r14_network.node[19].core_layer 	interests[19] 	12575
scalar tree_4_3_u01_r14_network.node[19].core_layer 	data[19] 	8923
scalar tree_4_3_u01_r14_network.node[19].content_store 	p_hit[19] 	0.290337972167
scalar tree_4_3_u01_r14_network.node[19].content_store 	hits[19] 	3651
scalar tree_4_3_u01_r14_network.node[19].content_store 	misses[19] 	8924
scalar tree_4_3_u01_r14_network.node[19].content_store 	decision_yes[19] 	627
scalar tree_4_3_u01_r14_network.node[19].content_store 	decision_no[19] 	8296
scalar tree_4_3_u01_r14_network.node[19].content_store 	decision_ratio[19] 	0.070267847136613
scalar tree_4_3_u01_r14_network.node[20].core_layer 	interests[20] 	12093
scalar tree_4_3_u01_r14_network.node[20].core_layer 	data[20] 	8775
scalar tree_4_3_u01_r14_network.node[20].content_store 	p_hit[20] 	0.27437360456462
scalar tree_4_3_u01_r14_network.node[20].content_store 	hits[20] 	3318
scalar tree_4_3_u01_r14_network.node[20].content_store 	misses[20] 	8775
scalar tree_4_3_u01_r14_network.node[20].content_store 	decision_yes[20] 	364
scalar tree_4_3_u01_r14_network.node[20].content_store 	decision_no[20] 	8411
scalar tree_4_3_u01_r14_network.node[20].content_store 	decision_ratio[20] 	0.041481481481481
scalar tree_4_3_u01_r14_network.node[21].core_layer 	interests[21] 	12159
scalar tree_4_3_u01_r14_network.node[21].core_layer 	data[21] 	8828
scalar tree_4_3_u01_r14_network.node[21].content_store 	p_hit[21] 	0.27395345011925
scalar tree_4_3_u01_r14_network.node[21].content_store 	hits[21] 	3331
scalar tree_4_3_u01_r14_network.node[21].content_store 	misses[21] 	8828
scalar tree_4_3_u01_r14_network.node[21].content_store 	decision_yes[21] 	359
scalar tree_4_3_u01_r14_network.node[21].content_store 	decision_no[21] 	8469
scalar tree_4_3_u01_r14_network.node[21].content_store 	decision_ratio[21] 	0.040666062528319
scalar tree_4_3_u01_r14_network.node[22].core_layer 	interests[22] 	12141
scalar tree_4_3_u01_r14_network.node[22].core_layer 	data[22] 	8766
scalar tree_4_3_u01_r14_network.node[22].content_store 	p_hit[22] 	0.27798369162342
scalar tree_4_3_u01_r14_network.node[22].content_store 	hits[22] 	3375
scalar tree_4_3_u01_r14_network.node[22].content_store 	misses[22] 	8766
scalar tree_4_3_u01_r14_network.node[22].content_store 	decision_yes[22] 	375
scalar tree_4_3_u01_r14_network.node[22].content_store 	decision_no[22] 	8391
scalar tree_4_3_u01_r14_network.node[22].content_store 	decision_ratio[22] 	0.042778918548939
scalar tree_4_3_u01_r14_network.node[23].core_layer 	interests[23] 	12587
scalar tree_4_3_u01_r14_network.node[23].core_layer 	data[23] 	8868
scalar tree_4_3_u01_r14_network.node[23].content_store 	p_hit[23] 	0.29546357352824
scalar tree_4_3_u01_r14_network.node[23].content_store 	hits[23] 	3719
scalar tree_4_3_u01_r14_network.node[23].content_store 	misses[23] 	8868
scalar tree_4_3_u01_r14_network.node[23].content_store 	decision_yes[23] 	644
scalar tree_4_3_u01_r14_network.node[23].content_store 	decision_no[23] 	8224
scalar tree_4_3_u01_r14_network.node[23].content_store 	decision_ratio[23] 	0.072620658547587
scalar tree_4_3_u01_r14_network.node[24].core_layer 	interests[24] 	12306
scalar tree_4_3_u01_r14_network.node[24].core_layer 	data[24] 	8824
scalar tree_4_3_u01_r14_network.node[24].content_store 	p_hit[24] 	0.28287014464489
scalar tree_4_3_u01_r14_network.node[24].content_store 	hits[24] 	3481
scalar tree_4_3_u01_r14_network.node[24].content_store 	misses[24] 	8825
scalar tree_4_3_u01_r14_network.node[24].content_store 	decision_yes[24] 	333
scalar tree_4_3_u01_r14_network.node[24].content_store 	decision_no[24] 	8491
scalar tree_4_3_u01_r14_network.node[24].content_store 	decision_ratio[24] 	0.037737987307344
scalar tree_4_3_u01_r14_network.node[25].core_layer 	interests[25] 	12195
scalar tree_4_3_u01_r14_network.node[25].core_layer 	data[25] 	8717
scalar tree_4_3_u01_r14_network.node[25].content_store 	p_hit[25] 	0.28528085280853
scalar tree_4_3_u01_r14_network.node[25].content_store 	hits[25] 	3479
scalar tree_4_3_u01_r14_network.node[25].content_store 	misses[25] 	8716
scalar tree_4_3_u01_r14_network.node[25].content_store 	decision_yes[25] 	357
scalar tree_4_3_u01_r14_network.node[25].content_store 	decision_no[25] 	8360
scalar tree_4_3_u01_r14_network.node[25].content_store 	decision_ratio[25] 	0.040954456808535
scalar tree_4_3_u01_r14_network.node[26].core_layer 	interests[26] 	12282
scalar tree_4_3_u01_r14_network.node[26].core_layer 	data[26] 	8753
scalar tree_4_3_u01_r14_network.node[26].content_store 	p_hit[26] 	0.28741247353851
scalar tree_4_3_u01_r14_network.node[26].content_store 	hits[26] 	3530
scalar tree_4_3_u01_r14_network.node[26].content_store 	misses[26] 	8752
scalar tree_4_3_u01_r14_network.node[26].content_store 	decision_yes[26] 	374
scalar tree_4_3_u01_r14_network.node[26].content_store 	decision_no[26] 	8379
scalar tree_4_3_u01_r14_network.node[26].content_store 	decision_ratio[26] 	0.042728207471724
scalar tree_4_3_u01_r14_network.node[27].core_layer 	interests[27] 	12318
scalar tree_4_3_u01_r14_network.node[27].core_layer 	data[27] 	8808
scalar tree_4_3_u01_r14_network.node[27].content_store 	p_hit[27] 	0.28486767332359
scalar tree_4_3_u01_r14_network.node[27].content_store 	hits[27] 	3509
scalar tree_4_3_u01_r14_network.node[27].content_store 	misses[27] 	8809
scalar tree_4_3_u01_r14_network.node[27].content_store 	decision_yes[27] 	393
scalar tree_4_3_u01_r14_network.node[27].content_store 	decision_no[27] 	8415
scalar tree_4_3_u01_r14_network.node[27].content_store 	decision_ratio[27] 	0.044618528610354
scalar tree_4_3_u01_r14_network.node[28].core_layer 	interests[28] 	12032
scalar tree_4_3_u01_r14_network.node[28].core_layer 	data[28] 	8636
scalar tree_4_3_u01_r14_network.node[28].content_store 	p_hit[28] 	0.2821642287234
scalar tree_4_3_u01_r14_network.node[28].content_store 	hits[28] 	3395
scalar tree_4_3_u01_r14_network.node[28].content_store 	misses[28] 	8637
scalar tree_4_3_u01_r14_network.node[28].content_store 	decision_yes[28] 	346
scalar tree_4_3_u01_r14_network.node[28].content_store 	decision_no[28] 	8290
scalar tree_4_3_u01_r14_network.node[28].content_store 	decision_ratio[28] 	0.040064844835572
scalar tree_4_3_u01_r14_network.node[29].core_layer 	interests[29] 	12605
scalar tree_4_3_u01_r14_network.node[29].core_layer 	data[29] 	8936
scalar tree_4_3_u01_r14_network.node[29].content_store 	p_hit[29] 	0.2910749702499
scalar tree_4_3_u01_r14_network.node[29].content_store 	hits[29] 	3669
scalar tree_4_3_u01_r14_network.node[29].content_store 	misses[29] 	8936
scalar tree_4_3_u01_r14_network.node[29].content_store 	decision_yes[29] 	651
scalar tree_4_3_u01_r14_network.node[29].content_store 	decision_no[29] 	8285
scalar tree_4_3_u01_r14_network.node[29].content_store 	decision_ratio[29] 	0.072851387645479
scalar tree_4_3_u01_r14_network.node[30].core_layer 	interests[30] 	12017
scalar tree_4_3_u01_r14_network.node[30].core_layer 	data[30] 	8574
scalar tree_4_3_u01_r14_network.node[30].content_store 	p_hit[30] 	0.2865107764001
scalar tree_4_3_u01_r14_network.node[30].content_store 	hits[30] 	3443
scalar tree_4_3_u01_r14_network.node[30].content_store 	misses[30] 	8574
scalar tree_4_3_u01_r14_network.node[30].content_store 	decision_yes[30] 	357
scalar tree_4_3_u01_r14_network.node[30].content_store 	decision_no[30] 	8217
scalar tree_4_3_u01_r14_network.node[30].content_store 	decision_ratio[30] 	0.041637508747376
scalar tree_4_3_u01_r14_network.node[31].core_layer 	interests[31] 	12472
scalar tree_4_3_u01_r14_network.node[31].core_layer 	data[31] 	8885
scalar tree_4_3_u01_r14_network.node[31].content_store 	p_hit[31] 	0.287604233483
scalar tree_4_3_u01_r14_network.node[31].content_store 	hits[31] 	3587
scalar tree_4_3_u01_r14_network.node[31].content_store 	misses[31] 	8885
scalar tree_4_3_u01_r14_network.node[31].content_store 	decision_yes[31] 	368
scalar tree_4_3_u01_r14_network.node[31].content_store 	decision_no[31] 	8517
scalar tree_4_3_u01_r14_network.node[31].content_store 	decision_ratio[31] 	0.041418120427687
scalar tree_4_3_u01_r14_network.node[32].core_layer 	interests[32] 	12141
scalar tree_4_3_u01_r14_network.node[32].core_layer 	data[32] 	8691
scalar tree_4_3_u01_r14_network.node[32].content_store 	p_hit[32] 	0.28407874145458
scalar tree_4_3_u01_r14_network.node[32].content_store 	hits[32] 	3449
scalar tree_4_3_u01_r14_network.node[32].content_store 	misses[32] 	8692
scalar tree_4_3_u01_r14_network.node[32].content_store 	decision_yes[32] 	359
scalar tree_4_3_u01_r14_network.node[32].content_store 	decision_no[32] 	8332
scalar tree_4_3_u01_r14_network.node[32].content_store 	decision_ratio[32] 	0.041307099298124
scalar tree_4_3_u01_r14_network.node[33].core_layer 	interests[33] 	12382
scalar tree_4_3_u01_r14_network.node[33].core_layer 	data[33] 	8861
scalar tree_4_3_u01_r14_network.node[33].content_store 	p_hit[33] 	0.28436439993539
scalar tree_4_3_u01_r14_network.node[33].content_store 	hits[33] 	3521
scalar tree_4_3_u01_r14_network.node[33].content_store 	misses[33] 	8861
scalar tree_4_3_u01_r14_network.node[33].content_store 	decision_yes[33] 	370
scalar tree_4_3_u01_r14_network.node[33].content_store 	decision_no[33] 	8491
scalar tree_4_3_u01_r14_network.node[33].content_store 	decision_ratio[33] 	0.041756009479743
scalar tree_4_3_u01_r14_network.node[34].core_layer 	interests[34] 	12039
scalar tree_4_3_u01_r14_network.node[34].core_layer 	data[34] 	8608
scalar tree_4_3_u01_r14_network.node[34].content_store 	p_hit[34] 	0.28490738433425
scalar tree_4_3_u01_r14_network.node[34].content_store 	hits[34] 	3430
scalar tree_4_3_u01_r14_network.node[34].content_store 	misses[34] 	8609
scalar tree_4_3_u01_r14_network.node[34].content_store 	decision_yes[34] 	369
scalar tree_4_3_u01_r14_network.node[34].content_store 	decision_no[34] 	8239
scalar tree_4_3_u01_r14_network.node[34].content_store 	decision_ratio[34] 	0.042867100371747
scalar tree_4_3_u01_r14_network.node[35].core_layer 	interests[35] 	12304
scalar tree_4_3_u01_r14_network.node[35].core_layer 	data[35] 	8770
scalar tree_4_3_u01_r14_network.node[35].content_store 	p_hit[35] 	0.28722366710013
scalar tree_4_3_u01_r14_network.node[35].content_store 	hits[35] 	3534
scalar tree_4_3_u01_r14_network.node[35].content_store 	misses[35] 	8770
scalar tree_4_3_u01_r14_network.node[35].content_store 	decision_yes[35] 	349
scalar tree_4_3_u01_r14_network.node[35].content_store 	decision_no[35] 	8421
scalar tree_4_3_u01_r14_network.node[35].content_store 	decision_ratio[35] 	0.039794754846066
scalar tree_4_3_u01_r14_network.node[36].core_layer 	interests[36] 	12325
scalar tree_4_3_u01_r14_network.node[36].core_layer 	data[36] 	8780
scalar tree_4_3_u01_r14_network.node[36].content_store 	p_hit[36] 	0.28762677484787
scalar tree_4_3_u01_r14_network.node[36].content_store 	hits[36] 	3545
scalar tree_4_3_u01_r14_network.node[36].content_store 	misses[36] 	8780
scalar tree_4_3_u01_r14_network.node[36].content_store 	decision_yes[36] 	373
scalar tree_4_3_u01_r14_network.node[36].content_store 	decision_no[36] 	8407
scalar tree_4_3_u01_r14_network.node[36].content_store 	decision_ratio[36] 	0.04248291571754
scalar tree_4_3_u01_r14_network.node[37].core_layer 	interests[37] 	12227
scalar tree_4_3_u01_r14_network.node[37].core_layer 	data[37] 	8642
scalar tree_4_3_u01_r14_network.node[37].content_store 	p_hit[37] 	0.29328535208964
scalar tree_4_3_u01_r14_network.node[37].content_store 	hits[37] 	3586
scalar tree_4_3_u01_r14_network.node[37].content_store 	misses[37] 	8641
scalar tree_4_3_u01_r14_network.node[37].content_store 	decision_yes[37] 	360
scalar tree_4_3_u01_r14_network.node[37].content_store 	decision_no[37] 	8282
scalar tree_4_3_u01_r14_network.node[37].content_store 	decision_ratio[37] 	0.041657023837075
scalar tree_4_3_u01_r14_network.node[38].core_layer 	interests[38] 	12388
scalar tree_4_3_u01_r14_network.node[38].core_layer 	data[38] 	8879
scalar tree_4_3_u01_r14_network.node[38].content_store 	p_hit[38] 	0.28325799160478
scalar tree_4_3_u01_r14_network.node[38].content_store 	hits[38] 	3509
scalar tree_4_3_u01_r14_network.node[38].content_store 	misses[38] 	8879
scalar tree_4_3_u01_r14_network.node[38].content_store 	decision_yes[38] 	377
scalar tree_4_3_u01_r14_network.node[38].content_store 	decision_no[38] 	8502
scalar tree_4_3_u01_r14_network.node[38].content_store 	decision_ratio[38] 	0.042459736456808
scalar tree_4_3_u01_r14_network.node[39].core_layer 	interests[39] 	12472
scalar tree_4_3_u01_r14_network.node[39].core_layer 	data[39] 	8887
scalar tree_4_3_u01_r14_network.node[39].content_store 	p_hit[39] 	0.28736369467607
scalar tree_4_3_u01_r14_network.node[39].content_store 	hits[39] 	3584
scalar tree_4_3_u01_r14_network.node[39].content_store 	misses[39] 	8888
scalar tree_4_3_u01_r14_network.node[39].content_store 	decision_yes[39] 	413
scalar tree_4_3_u01_r14_network.node[39].content_store 	decision_no[39] 	8474
scalar tree_4_3_u01_r14_network.node[39].content_store 	decision_ratio[39] 	0.046472375379768
scalar tree_4_3_u01_r14_network.client[13] 	hdistance[13] 	2.7265695712993
scalar tree_4_3_u01_r14_network.client[13] 	downloads[13] 	12153
scalar tree_4_3_u01_r14_network.client[13] 	avg_time[13] 	0.004153844413
scalar tree_4_3_u01_r14_network.client[14] 	hdistance[14] 	2.7499793029224
scalar tree_4_3_u01_r14_network.client[14] 	downloads[14] 	12079
scalar tree_4_3_u01_r14_network.client[14] 	avg_time[14] 	0.004196195469
scalar tree_4_3_u01_r14_network.client[15] 	hdistance[15] 	2.718965660597
scalar tree_4_3_u01_r14_network.client[15] 	downloads[15] 	12027
scalar tree_4_3_u01_r14_network.client[15] 	avg_time[15] 	0.004145004066
scalar tree_4_3_u01_r14_network.client[16] 	hdistance[16] 	2.7454575902202
scalar tree_4_3_u01_r14_network.client[16] 	downloads[16] 	11943
scalar tree_4_3_u01_r14_network.client[16] 	avg_time[16] 	0.004194587978
scalar tree_4_3_u01_r14_network.client[17] 	hdistance[17] 	2.7220482437579
scalar tree_4_3_u01_r14_network.client[17] 	downloads[17] 	11815
scalar tree_4_3_u01_r14_network.client[17] 	avg_time[17] 	0.004158101158
scalar tree_4_3_u01_r14_network.client[18] 	hdistance[18] 	2.7922398879644
scalar tree_4_3_u01_r14_network.client[18] 	downloads[18] 	12139
scalar tree_4_3_u01_r14_network.client[18] 	avg_time[18] 	0.004261962556
scalar tree_4_3_u01_r14_network.client[19] 	hdistance[19] 	2.7474538378736
scalar tree_4_3_u01_r14_network.client[19] 	downloads[19] 	12077
scalar tree_4_3_u01_r14_network.client[19] 	avg_time[19] 	0.004181689105
scalar tree_4_3_u01_r14_network.client[20] 	hdistance[20] 	2.7721296373838
scalar tree_4_3_u01_r14_network.client[20] 	downloads[20] 	11941
scalar tree_4_3_u01_r14_network.client[20] 	avg_time[20] 	0.004229127878
scalar tree_4_3_u01_r14_network.client[21] 	hdistance[21] 	2.7735786231582
scalar tree_4_3_u01_r14_network.client[21] 	downloads[21] 	12013
scalar tree_4_3_u01_r14_network.client[21] 	avg_time[21] 	0.004232744852
scalar tree_4_3_u01_r14_network.client[22] 	hdistance[22] 	2.7519619302054
scalar tree_4_3_u01_r14_network.client[22] 	downloads[22] 	11978
scalar tree_4_3_u01_r14_network.client[22] 	avg_time[22] 	0.004205540493
scalar tree_4_3_u01_r14_network.client[23] 	hdistance[23] 	2.7163600363006
scalar tree_4_3_u01_r14_network.client[23] 	downloads[23] 	12121
scalar tree_4_3_u01_r14_network.client[23] 	avg_time[23] 	0.004132659276
scalar tree_4_3_u01_r14_network.client[24] 	hdistance[24] 	2.7512146915919
scalar tree_4_3_u01_r14_network.client[24] 	downloads[24] 	12143
scalar tree_4_3_u01_r14_network.client[24] 	avg_time[24] 	0.004194920088
scalar tree_4_3_u01_r14_network.client[25] 	hdistance[25] 	2.7440928446188
scalar tree_4_3_u01_r14_network.client[25] 	downloads[25] 	11977
scalar tree_4_3_u01_r14_network.client[25] 	avg_time[25] 	0.004180342722
scalar tree_4_3_u01_r14_network.client[26] 	hdistance[26] 	2.7328522849797
scalar tree_4_3_u01_r14_network.client[26] 	downloads[26] 	12057
scalar tree_4_3_u01_r14_network.client[26] 	avg_time[26] 	0.004164714591
scalar tree_4_3_u01_r14_network.client[27] 	hdistance[27] 	2.746975973488
scalar tree_4_3_u01_r14_network.client[27] 	downloads[27] 	12070
scalar tree_4_3_u01_r14_network.client[27] 	avg_time[27] 	0.004183095597
scalar tree_4_3_u01_r14_network.client[28] 	hdistance[28] 	2.7434841096351
scalar tree_4_3_u01_r14_network.client[28] 	downloads[28] 	11894
scalar tree_4_3_u01_r14_network.client[28] 	avg_time[28] 	0.004185201962
scalar tree_4_3_u01_r14_network.client[29] 	hdistance[29] 	2.7279090834225
scalar tree_4_3_u01_r14_network.client[29] 	downloads[29] 	12143
scalar tree_4_3_u01_r14_network.client[29] 	avg_time[29] 	0.004153006936
scalar tree_4_3_u01_r14_network.client[30] 	hdistance[30] 	2.7196804037006
scalar tree_4_3_u01_r14_network.client[30] 	downloads[30] 	11890
scalar tree_4_3_u01_r14_network.client[30] 	avg_time[30] 	0.004149702652
scalar tree_4_3_u01_r14_network.client[31] 	hdistance[31] 	2.7357905895784
scalar tree_4_3_u01_r14_network.client[31] 	downloads[31] 	12263
scalar tree_4_3_u01_r14_network.client[31] 	avg_time[31] 	0.004174342543
scalar tree_4_3_u01_r14_network.client[32] 	hdistance[32] 	2.7556504269211
scalar tree_4_3_u01_r14_network.client[32] 	downloads[32] 	11946
scalar tree_4_3_u01_r14_network.client[32] 	avg_time[32] 	0.004197887504
scalar tree_4_3_u01_r14_network.client[33] 	hdistance[33] 	2.7542261611686
scalar tree_4_3_u01_r14_network.client[33] 	downloads[33] 	12186
scalar tree_4_3_u01_r14_network.client[33] 	avg_time[33] 	0.004195303041
scalar tree_4_3_u01_r14_network.client[34] 	hdistance[34] 	2.7417582417583
scalar tree_4_3_u01_r14_network.client[34] 	downloads[34] 	11830
scalar tree_4_3_u01_r14_network.client[34] 	avg_time[34] 	0.004183496098
scalar tree_4_3_u01_r14_network.client[35] 	hdistance[35] 	2.7473893585281
scalar tree_4_3_u01_r14_network.client[35] 	downloads[35] 	12066
scalar tree_4_3_u01_r14_network.client[35] 	avg_time[35] 	0.004190283711
scalar tree_4_3_u01_r14_network.client[36] 	hdistance[36] 	2.7347326667218
scalar tree_4_3_u01_r14_network.client[36] 	downloads[36] 	12101
scalar tree_4_3_u01_r14_network.client[36] 	avg_time[36] 	0.004172379409
scalar tree_4_3_u01_r14_network.client[37] 	hdistance[37] 	2.7203135423616
scalar tree_4_3_u01_r14_network.client[37] 	downloads[37] 	11992
scalar tree_4_3_u01_r14_network.client[37] 	avg_time[37] 	0.004146761499
scalar tree_4_3_u01_r14_network.client[38] 	hdistance[38] 	2.7589410507276
scalar tree_4_3_u01_r14_network.client[38] 	downloads[38] 	12163
scalar tree_4_3_u01_r14_network.client[38] 	avg_time[38] 	0.004203886594
scalar tree_4_3_u01_r14_network.client[39] 	hdistance[39] 	2.7279405762795
scalar tree_4_3_u01_r14_network.client[39] 	downloads[39] 	12251
scalar tree_4_3_u01_r14_network.client[39] 	avg_time[39] 	0.004160473672
