version 2
run General-163-20160819-17:35:14-23511
attr a 0.9
attr cd lce
attr configname General
attr cr lru
attr datetime 20160819-17:35:14
attr experiment General
attr fsize 1
attr inifile hw5115/scenario_A/NRR-LCE.ini
attr iterationvars "$name=tree_4_3, $un=08, $rep=4, $cd=lce, $cr=lru, $fsize=1, $a=0.9, $sl=nrr, $ttl=1000, $variance=0.05"
attr iterationvars2 "$name=tree_4_3, $un=08, $rep=4, $cd=lce, $cr=lru, $fsize=1, $a=0.9, $sl=nrr, $ttl=1000, $variance=0.05, $repetition=0"
attr measurement "$name=tree_4_3, $un=08, $rep=4, $cd=lce, $cr=lru, $fsize=1, $a=0.9, $sl=nrr, $ttl=1000, $variance=0.05"
attr name tree_4_3
attr network networks.${name}_u${un}_r${rep}_network
attr processid 23511
attr rep 4
attr repetition 0
attr replication #0
attr resultdir results
attr runnumber 163
attr seedset 4
attr sl nrr
attr ttl 1000
attr un 08
attr variance 0.05

scalar . 	a 	0.9
scalar . 	fsize 	1
scalar . 	rep 	4
scalar . 	ttl 	1000
scalar . 	un 	08
scalar . 	variance 	0.05
scalar tree_4_3_u08_r4_network.content_distribution 	repo-0 	0
scalar tree_4_3_u08_r4_network.content_distribution 	client-0 	13
scalar tree_4_3_u08_r4_network.content_distribution 	client-1 	14
scalar tree_4_3_u08_r4_network.content_distribution 	client-2 	15
scalar tree_4_3_u08_r4_network.content_distribution 	client-3 	16
scalar tree_4_3_u08_r4_network.content_distribution 	client-4 	17
scalar tree_4_3_u08_r4_network.content_distribution 	client-5 	18
scalar tree_4_3_u08_r4_network.content_distribution 	client-6 	19
scalar tree_4_3_u08_r4_network.content_distribution 	client-7 	20
scalar tree_4_3_u08_r4_network.content_distribution 	client-8 	21
scalar tree_4_3_u08_r4_network.content_distribution 	client-9 	22
scalar tree_4_3_u08_r4_network.content_distribution 	client-10 	23
scalar tree_4_3_u08_r4_network.content_distribution 	client-11 	24
scalar tree_4_3_u08_r4_network.content_distribution 	client-12 	25
scalar tree_4_3_u08_r4_network.content_distribution 	client-13 	26
scalar tree_4_3_u08_r4_network.content_distribution 	client-14 	27
scalar tree_4_3_u08_r4_network.content_distribution 	client-15 	28
scalar tree_4_3_u08_r4_network.content_distribution 	client-16 	29
scalar tree_4_3_u08_r4_network.content_distribution 	client-17 	30
scalar tree_4_3_u08_r4_network.content_distribution 	client-18 	31
scalar tree_4_3_u08_r4_network.content_distribution 	client-19 	32
scalar tree_4_3_u08_r4_network.content_distribution 	client-20 	33
scalar tree_4_3_u08_r4_network.content_distribution 	client-21 	34
scalar tree_4_3_u08_r4_network.content_distribution 	client-22 	35
scalar tree_4_3_u08_r4_network.content_distribution 	client-23 	36
scalar tree_4_3_u08_r4_network.content_distribution 	client-24 	37
scalar tree_4_3_u08_r4_network.content_distribution 	client-25 	38
scalar tree_4_3_u08_r4_network.content_distribution 	client-26 	39
scalar tree_4_3_u08_r4_network.content_distribution 	repo-0_card 	100000
scalar tree_4_3_u08_r4_network.content_distribution 	repo-0_price 	0
scalar tree_4_3_u08_r4_network.statistics 	stabilization_time 	553.3
scalar tree_4_3_u08_r4_network.statistics 	p_hit 	0.20332874348453
scalar tree_4_3_u08_r4_network.statistics 	interests 	27412.1
scalar tree_4_3_u08_r4_network.statistics 	data 	19317.65
scalar tree_4_3_u08_r4_network.statistics 	hdistance 	2.9963387762483
scalar tree_4_3_u08_r4_network.statistics 	avg_time 	0.004772783583
scalar tree_4_3_u08_r4_network.statistics 	downloads 	323764
scalar tree_4_3_u08_r4_network.statistics 	total_cost 	0
scalar tree_4_3_u08_r4_network.statistics 	total_replicas 	100000
scalar tree_4_3_u08_r4_network.statistics 	inner_hit 	0.38999394620773
scalar tree_4_3_u08_r4_network.node[0].core_layer 	interests[0] 	197939
scalar tree_4_3_u08_r4_network.node[0].core_layer 	repo_load[0] 	197498
scalar tree_4_3_u08_r4_network.node[0].core_layer 	data[0] 	0
scalar tree_4_3_u08_r4_network.node[0].core_layer 	repo_int[0] 	197498
scalar tree_4_3_u08_r4_network.node[0].content_store 	p_hit[0] 	0.0022279591187184
scalar tree_4_3_u08_r4_network.node[0].content_store 	hits[0] 	441
scalar tree_4_3_u08_r4_network.node[0].content_store 	misses[0] 	197498
scalar tree_4_3_u08_r4_network.node[0].content_store 	decision_yes[0] 	197498
scalar tree_4_3_u08_r4_network.node[0].content_store 	decision_no[0] 	0
scalar tree_4_3_u08_r4_network.node[0].content_store 	decision_ratio[0] 	1
scalar tree_4_3_u08_r4_network.node[1].core_layer 	interests[1] 	154814
scalar tree_4_3_u08_r4_network.node[1].core_layer 	data[1] 	153487
scalar tree_4_3_u08_r4_network.node[1].content_store 	p_hit[1] 	0.0085069825726355
scalar tree_4_3_u08_r4_network.node[1].content_store 	hits[1] 	1317
scalar tree_4_3_u08_r4_network.node[1].content_store 	misses[1] 	153497
scalar tree_4_3_u08_r4_network.node[1].content_store 	decision_yes[1] 	153459
scalar tree_4_3_u08_r4_network.node[1].content_store 	decision_no[1] 	0
scalar tree_4_3_u08_r4_network.node[1].content_store 	decision_ratio[1] 	1
scalar tree_4_3_u08_r4_network.node[2].core_layer 	interests[2] 	63921
scalar tree_4_3_u08_r4_network.node[2].core_layer 	data[2] 	62311
scalar tree_4_3_u08_r4_network.node[2].content_store 	p_hit[2] 	0.025171696312636
scalar tree_4_3_u08_r4_network.node[2].content_store 	hits[2] 	1609
scalar tree_4_3_u08_r4_network.node[2].content_store 	misses[2] 	62312
scalar tree_4_3_u08_r4_network.node[2].content_store 	decision_yes[2] 	62307
scalar tree_4_3_u08_r4_network.node[2].content_store 	decision_no[2] 	0
scalar tree_4_3_u08_r4_network.node[2].content_store 	decision_ratio[2] 	1
scalar tree_4_3_u08_r4_network.node[3].core_layer 	interests[3] 	11088
scalar tree_4_3_u08_r4_network.node[3].core_layer 	data[3] 	10095
scalar tree_4_3_u08_r4_network.node[3].content_store 	p_hit[3] 	0.089556277056277
scalar tree_4_3_u08_r4_network.node[3].content_store 	hits[3] 	993
scalar tree_4_3_u08_r4_network.node[3].content_store 	misses[3] 	10095
scalar tree_4_3_u08_r4_network.node[3].content_store 	decision_yes[3] 	10095
scalar tree_4_3_u08_r4_network.node[3].content_store 	decision_no[3] 	0
scalar tree_4_3_u08_r4_network.node[3].content_store 	decision_ratio[3] 	1
scalar tree_4_3_u08_r4_network.node[4].core_layer 	interests[4] 	39136
scalar tree_4_3_u08_r4_network.node[4].core_layer 	data[4] 	37493
scalar tree_4_3_u08_r4_network.node[4].content_store 	p_hit[4] 	0.041956255110384
scalar tree_4_3_u08_r4_network.node[4].content_store 	hits[4] 	1642
scalar tree_4_3_u08_r4_network.node[4].content_store 	misses[4] 	37494
scalar tree_4_3_u08_r4_network.node[4].content_store 	decision_yes[4] 	37488
scalar tree_4_3_u08_r4_network.node[4].content_store 	decision_no[4] 	0
scalar tree_4_3_u08_r4_network.node[4].content_store 	decision_ratio[4] 	1
scalar tree_4_3_u08_r4_network.node[5].core_layer 	interests[5] 	36214
scalar tree_4_3_u08_r4_network.node[5].core_layer 	data[5] 	32742
scalar tree_4_3_u08_r4_network.node[5].content_store 	p_hit[5] 	0.095846910034793
scalar tree_4_3_u08_r4_network.node[5].content_store 	hits[5] 	3471
scalar tree_4_3_u08_r4_network.node[5].content_store 	misses[5] 	32743
scalar tree_4_3_u08_r4_network.node[5].content_store 	decision_yes[5] 	32741
scalar tree_4_3_u08_r4_network.node[5].content_store 	decision_no[5] 	0
scalar tree_4_3_u08_r4_network.node[5].content_store 	decision_ratio[5] 	1
scalar tree_4_3_u08_r4_network.node[6].core_layer 	interests[6] 	24911
scalar tree_4_3_u08_r4_network.node[6].core_layer 	data[6] 	21615
scalar tree_4_3_u08_r4_network.node[6].content_store 	p_hit[6] 	0.13223074143952
scalar tree_4_3_u08_r4_network.node[6].content_store 	hits[6] 	3294
scalar tree_4_3_u08_r4_network.node[6].content_store 	misses[6] 	21617
scalar tree_4_3_u08_r4_network.node[6].content_store 	decision_yes[6] 	21613
scalar tree_4_3_u08_r4_network.node[6].content_store 	decision_no[6] 	0
scalar tree_4_3_u08_r4_network.node[6].content_store 	decision_ratio[6] 	1
scalar tree_4_3_u08_r4_network.node[7].core_layer 	interests[7] 	52711
scalar tree_4_3_u08_r4_network.node[7].core_layer 	data[7] 	50025
scalar tree_4_3_u08_r4_network.node[7].content_store 	p_hit[7] 	0.050919162983059
scalar tree_4_3_u08_r4_network.node[7].content_store 	hits[7] 	2684
scalar tree_4_3_u08_r4_network.node[7].content_store 	misses[7] 	50027
scalar tree_4_3_u08_r4_network.node[7].content_store 	decision_yes[7] 	50018
scalar tree_4_3_u08_r4_network.node[7].content_store 	decision_no[7] 	0
scalar tree_4_3_u08_r4_network.node[7].content_store 	decision_ratio[7] 	1
scalar tree_4_3_u08_r4_network.node[8].core_layer 	interests[8] 	31650
scalar tree_4_3_u08_r4_network.node[8].core_layer 	data[8] 	29571
scalar tree_4_3_u08_r4_network.node[8].content_store 	p_hit[8] 	0.065592417061611
scalar tree_4_3_u08_r4_network.node[8].content_store 	hits[8] 	2076
scalar tree_4_3_u08_r4_network.node[8].content_store 	misses[8] 	29574
scalar tree_4_3_u08_r4_network.node[8].content_store 	decision_yes[8] 	29570
scalar tree_4_3_u08_r4_network.node[8].content_store 	decision_no[8] 	0
scalar tree_4_3_u08_r4_network.node[8].content_store 	decision_ratio[8] 	1
scalar tree_4_3_u08_r4_network.node[9].core_layer 	interests[9] 	15393
scalar tree_4_3_u08_r4_network.node[9].core_layer 	data[9] 	11420
scalar tree_4_3_u08_r4_network.node[9].content_store 	p_hit[9] 	0.25803936854414
scalar tree_4_3_u08_r4_network.node[9].content_store 	hits[9] 	3972
scalar tree_4_3_u08_r4_network.node[9].content_store 	misses[9] 	11421
scalar tree_4_3_u08_r4_network.node[9].content_store 	decision_yes[9] 	11420
scalar tree_4_3_u08_r4_network.node[9].content_store 	decision_no[9] 	0
scalar tree_4_3_u08_r4_network.node[9].content_store 	decision_ratio[9] 	1
scalar tree_4_3_u08_r4_network.node[10].core_layer 	interests[10] 	52065
scalar tree_4_3_u08_r4_network.node[10].core_layer 	data[10] 	49548
scalar tree_4_3_u08_r4_network.node[10].content_store 	p_hit[10] 	0.048266589839624
scalar tree_4_3_u08_r4_network.node[10].content_store 	hits[10] 	2513
scalar tree_4_3_u08_r4_network.node[10].content_store 	misses[10] 	49552
scalar tree_4_3_u08_r4_network.node[10].content_store 	decision_yes[10] 	49543
scalar tree_4_3_u08_r4_network.node[10].content_store 	decision_no[10] 	0
scalar tree_4_3_u08_r4_network.node[10].content_store 	decision_ratio[10] 	1
scalar tree_4_3_u08_r4_network.node[11].core_layer 	interests[11] 	34638
scalar tree_4_3_u08_r4_network.node[11].core_layer 	data[11] 	31959
scalar tree_4_3_u08_r4_network.node[11].content_store 	p_hit[11] 	0.077285062647959
scalar tree_4_3_u08_r4_network.node[11].content_store 	hits[11] 	2677
scalar tree_4_3_u08_r4_network.node[11].content_store 	misses[11] 	31961
scalar tree_4_3_u08_r4_network.node[11].content_store 	decision_yes[11] 	31958
scalar tree_4_3_u08_r4_network.node[11].content_store 	decision_no[11] 	0
scalar tree_4_3_u08_r4_network.node[11].content_store 	decision_ratio[11] 	1
scalar tree_4_3_u08_r4_network.node[12].core_layer 	interests[12] 	12664
scalar tree_4_3_u08_r4_network.node[12].core_layer 	data[12] 	11011
scalar tree_4_3_u08_r4_network.node[12].content_store 	p_hit[12] 	0.13052747946936
scalar tree_4_3_u08_r4_network.node[12].content_store 	hits[12] 	1653
scalar tree_4_3_u08_r4_network.node[12].content_store 	misses[12] 	11011
scalar tree_4_3_u08_r4_network.node[12].content_store 	decision_yes[12] 	11011
scalar tree_4_3_u08_r4_network.node[12].content_store 	decision_no[12] 	0
scalar tree_4_3_u08_r4_network.node[12].content_store 	decision_ratio[12] 	1
scalar tree_4_3_u08_r4_network.node[13].core_layer 	interests[13] 	13102
scalar tree_4_3_u08_r4_network.node[13].core_layer 	data[13] 	10224
scalar tree_4_3_u08_r4_network.node[13].content_store 	p_hit[13] 	0.21958479621432
scalar tree_4_3_u08_r4_network.node[13].content_store 	hits[13] 	2877
scalar tree_4_3_u08_r4_network.node[13].content_store 	misses[13] 	10225
scalar tree_4_3_u08_r4_network.node[13].content_store 	decision_yes[13] 	10224
scalar tree_4_3_u08_r4_network.node[13].content_store 	decision_no[13] 	0
scalar tree_4_3_u08_r4_network.node[13].content_store 	decision_ratio[13] 	1
scalar tree_4_3_u08_r4_network.node[14].core_layer 	interests[14] 	14287
scalar tree_4_3_u08_r4_network.node[14].core_layer 	data[14] 	10089
scalar tree_4_3_u08_r4_network.node[14].content_store 	p_hit[14] 	0.29376356127948
scalar tree_4_3_u08_r4_network.node[14].content_store 	hits[14] 	4197
scalar tree_4_3_u08_r4_network.node[14].content_store 	misses[14] 	10090
scalar tree_4_3_u08_r4_network.node[14].content_store 	decision_yes[14] 	10089
scalar tree_4_3_u08_r4_network.node[14].content_store 	decision_no[14] 	0
scalar tree_4_3_u08_r4_network.node[14].content_store 	decision_ratio[14] 	1
scalar tree_4_3_u08_r4_network.node[15].core_layer 	interests[15] 	14039
scalar tree_4_3_u08_r4_network.node[15].core_layer 	data[15] 	9936
scalar tree_4_3_u08_r4_network.node[15].content_store 	p_hit[15] 	0.29218605313769
scalar tree_4_3_u08_r4_network.node[15].content_store 	hits[15] 	4102
scalar tree_4_3_u08_r4_network.node[15].content_store 	misses[15] 	9937
scalar tree_4_3_u08_r4_network.node[15].content_store 	decision_yes[15] 	9936
scalar tree_4_3_u08_r4_network.node[15].content_store 	decision_no[15] 	0
scalar tree_4_3_u08_r4_network.node[15].content_store 	decision_ratio[15] 	1
scalar tree_4_3_u08_r4_network.node[16].core_layer 	interests[16] 	14138
scalar tree_4_3_u08_r4_network.node[16].core_layer 	data[16] 	10070
scalar tree_4_3_u08_r4_network.node[16].content_store 	p_hit[16] 	0.2877351817796
scalar tree_4_3_u08_r4_network.node[16].content_store 	hits[16] 	4068
scalar tree_4_3_u08_r4_network.node[16].content_store 	misses[16] 	10070
scalar tree_4_3_u08_r4_network.node[16].content_store 	decision_yes[16] 	10070
scalar tree_4_3_u08_r4_network.node[16].content_store 	decision_no[16] 	0
scalar tree_4_3_u08_r4_network.node[16].content_store 	decision_ratio[16] 	1
scalar tree_4_3_u08_r4_network.node[17].core_layer 	interests[17] 	13288
scalar tree_4_3_u08_r4_network.node[17].core_layer 	data[17] 	10051
scalar tree_4_3_u08_r4_network.node[17].content_store 	p_hit[17] 	0.24360325105358
scalar tree_4_3_u08_r4_network.node[17].content_store 	hits[17] 	3237
scalar tree_4_3_u08_r4_network.node[17].content_store 	misses[17] 	10051
scalar tree_4_3_u08_r4_network.node[17].content_store 	decision_yes[17] 	10051
scalar tree_4_3_u08_r4_network.node[17].content_store 	decision_no[17] 	0
scalar tree_4_3_u08_r4_network.node[17].content_store 	decision_ratio[17] 	1
scalar tree_4_3_u08_r4_network.node[18].core_layer 	interests[18] 	14351
scalar tree_4_3_u08_r4_network.node[18].core_layer 	data[18] 	10099
scalar tree_4_3_u08_r4_network.node[18].content_store 	p_hit[18] 	0.29628597310292
scalar tree_4_3_u08_r4_network.node[18].content_store 	hits[18] 	4252
scalar tree_4_3_u08_r4_network.node[18].content_store 	misses[18] 	10099
scalar tree_4_3_u08_r4_network.node[18].content_store 	decision_yes[18] 	10099
scalar tree_4_3_u08_r4_network.node[18].content_store 	decision_no[18] 	0
scalar tree_4_3_u08_r4_network.node[18].content_store 	decision_ratio[18] 	1
scalar tree_4_3_u08_r4_network.node[19].core_layer 	interests[19] 	12725
scalar tree_4_3_u08_r4_network.node[19].core_layer 	data[19] 	9938
scalar tree_4_3_u08_r4_network.node[19].content_store 	p_hit[19] 	0.2188605108055
scalar tree_4_3_u08_r4_network.node[19].content_store 	hits[19] 	2785
scalar tree_4_3_u08_r4_network.node[19].content_store 	misses[19] 	9940
scalar tree_4_3_u08_r4_network.node[19].content_store 	decision_yes[19] 	9938
scalar tree_4_3_u08_r4_network.node[19].content_store 	decision_no[19] 	0
scalar tree_4_3_u08_r4_network.node[19].content_store 	decision_ratio[19] 	1
scalar tree_4_3_u08_r4_network.node[20].core_layer 	interests[20] 	14116
scalar tree_4_3_u08_r4_network.node[20].core_layer 	data[20] 	9891
scalar tree_4_3_u08_r4_network.node[20].content_store 	p_hit[20] 	0.29930575233777
scalar tree_4_3_u08_r4_network.node[20].content_store 	hits[20] 	4225
scalar tree_4_3_u08_r4_network.node[20].content_store 	misses[20] 	9891
scalar tree_4_3_u08_r4_network.node[20].content_store 	decision_yes[20] 	9891
scalar tree_4_3_u08_r4_network.node[20].content_store 	decision_no[20] 	0
scalar tree_4_3_u08_r4_network.node[20].content_store 	decision_ratio[20] 	1
scalar tree_4_3_u08_r4_network.node[21].core_layer 	interests[21] 	12819
scalar tree_4_3_u08_r4_network.node[21].core_layer 	data[21] 	10089
scalar tree_4_3_u08_r4_network.node[21].content_store 	p_hit[21] 	0.21296512988533
scalar tree_4_3_u08_r4_network.node[21].content_store 	hits[21] 	2730
scalar tree_4_3_u08_r4_network.node[21].content_store 	misses[21] 	10089
scalar tree_4_3_u08_r4_network.node[21].content_store 	decision_yes[21] 	10089
scalar tree_4_3_u08_r4_network.node[21].content_store 	decision_no[21] 	0
scalar tree_4_3_u08_r4_network.node[21].content_store 	decision_ratio[21] 	1
scalar tree_4_3_u08_r4_network.node[22].core_layer 	interests[22] 	13776
scalar tree_4_3_u08_r4_network.node[22].core_layer 	data[22] 	10191
scalar tree_4_3_u08_r4_network.node[22].content_store 	p_hit[22] 	0.26023519163763
scalar tree_4_3_u08_r4_network.node[22].content_store 	hits[22] 	3585
scalar tree_4_3_u08_r4_network.node[22].content_store 	misses[22] 	10191
scalar tree_4_3_u08_r4_network.node[22].content_store 	decision_yes[22] 	10191
scalar tree_4_3_u08_r4_network.node[22].content_store 	decision_no[22] 	0
scalar tree_4_3_u08_r4_network.node[22].content_store 	decision_ratio[22] 	1
scalar tree_4_3_u08_r4_network.node[23].core_layer 	interests[23] 	14161
scalar tree_4_3_u08_r4_network.node[23].core_layer 	data[23] 	9996
scalar tree_4_3_u08_r4_network.node[23].content_store 	p_hit[23] 	0.29397641409505
scalar tree_4_3_u08_r4_network.node[23].content_store 	hits[23] 	4163
scalar tree_4_3_u08_r4_network.node[23].content_store 	misses[23] 	9998
scalar tree_4_3_u08_r4_network.node[23].content_store 	decision_yes[23] 	9996
scalar tree_4_3_u08_r4_network.node[23].content_store 	decision_no[23] 	0
scalar tree_4_3_u08_r4_network.node[23].content_store 	decision_ratio[23] 	1
scalar tree_4_3_u08_r4_network.node[24].core_layer 	interests[24] 	14113
scalar tree_4_3_u08_r4_network.node[24].core_layer 	data[24] 	10060
scalar tree_4_3_u08_r4_network.node[24].content_store 	p_hit[24] 	0.28718203075179
scalar tree_4_3_u08_r4_network.node[24].content_store 	hits[24] 	4053
scalar tree_4_3_u08_r4_network.node[24].content_store 	misses[24] 	10060
scalar tree_4_3_u08_r4_network.node[24].content_store 	decision_yes[24] 	10060
scalar tree_4_3_u08_r4_network.node[24].content_store 	decision_no[24] 	0
scalar tree_4_3_u08_r4_network.node[24].content_store 	decision_ratio[24] 	1
scalar tree_4_3_u08_r4_network.node[25].core_layer 	interests[25] 	14273
scalar tree_4_3_u08_r4_network.node[25].core_layer 	data[25] 	10169
scalar tree_4_3_u08_r4_network.node[25].content_store 	p_hit[25] 	0.28753590695719
scalar tree_4_3_u08_r4_network.node[25].content_store 	hits[25] 	4104
scalar tree_4_3_u08_r4_network.node[25].content_store 	misses[25] 	10169
scalar tree_4_3_u08_r4_network.node[25].content_store 	decision_yes[25] 	10169
scalar tree_4_3_u08_r4_network.node[25].content_store 	decision_no[25] 	0
scalar tree_4_3_u08_r4_network.node[25].content_store 	decision_ratio[25] 	1
scalar tree_4_3_u08_r4_network.node[26].core_layer 	interests[26] 	12940
scalar tree_4_3_u08_r4_network.node[26].core_layer 	data[26] 	9930
scalar tree_4_3_u08_r4_network.node[26].content_store 	p_hit[26] 	0.23245749613601
scalar tree_4_3_u08_r4_network.node[26].content_store 	hits[26] 	3008
scalar tree_4_3_u08_r4_network.node[26].content_store 	misses[26] 	9932
scalar tree_4_3_u08_r4_network.node[26].content_store 	decision_yes[26] 	9930
scalar tree_4_3_u08_r4_network.node[26].content_store 	decision_no[26] 	0
scalar tree_4_3_u08_r4_network.node[26].content_store 	decision_ratio[26] 	1
scalar tree_4_3_u08_r4_network.node[27].core_layer 	interests[27] 	13606
scalar tree_4_3_u08_r4_network.node[27].core_layer 	data[27] 	9887
scalar tree_4_3_u08_r4_network.node[27].content_store 	p_hit[27] 	0.27318829927973
scalar tree_4_3_u08_r4_network.node[27].content_store 	hits[27] 	3717
scalar tree_4_3_u08_r4_network.node[27].content_store 	misses[27] 	9889
scalar tree_4_3_u08_r4_network.node[27].content_store 	decision_yes[27] 	9887
scalar tree_4_3_u08_r4_network.node[27].content_store 	decision_no[27] 	0
scalar tree_4_3_u08_r4_network.node[27].content_store 	decision_ratio[27] 	1
scalar tree_4_3_u08_r4_network.node[28].core_layer 	interests[28] 	14233
scalar tree_4_3_u08_r4_network.node[28].core_layer 	data[28] 	10023
scalar tree_4_3_u08_r4_network.node[28].content_store 	p_hit[28] 	0.29572121126958
scalar tree_4_3_u08_r4_network.node[28].content_store 	hits[28] 	4209
scalar tree_4_3_u08_r4_network.node[28].content_store 	misses[28] 	10024
scalar tree_4_3_u08_r4_network.node[28].content_store 	decision_yes[28] 	10023
scalar tree_4_3_u08_r4_network.node[28].content_store 	decision_no[28] 	0
scalar tree_4_3_u08_r4_network.node[28].content_store 	decision_ratio[28] 	1
scalar tree_4_3_u08_r4_network.node[29].core_layer 	interests[29] 	13601
scalar tree_4_3_u08_r4_network.node[29].core_layer 	data[29] 	10089
scalar tree_4_3_u08_r4_network.node[29].content_store 	p_hit[29] 	0.25821630762444
scalar tree_4_3_u08_r4_network.node[29].content_store 	hits[29] 	3512
scalar tree_4_3_u08_r4_network.node[29].content_store 	misses[29] 	10089
scalar tree_4_3_u08_r4_network.node[29].content_store 	decision_yes[29] 	10089
scalar tree_4_3_u08_r4_network.node[29].content_store 	decision_no[29] 	0
scalar tree_4_3_u08_r4_network.node[29].content_store 	decision_ratio[29] 	1
scalar tree_4_3_u08_r4_network.node[30].core_layer 	interests[30] 	12324
scalar tree_4_3_u08_r4_network.node[30].core_layer 	data[30] 	10208
scalar tree_4_3_u08_r4_network.node[30].content_store 	p_hit[30] 	0.17169750081142
scalar tree_4_3_u08_r4_network.node[30].content_store 	hits[30] 	2116
scalar tree_4_3_u08_r4_network.node[30].content_store 	misses[30] 	10208
scalar tree_4_3_u08_r4_network.node[30].content_store 	decision_yes[30] 	10208
scalar tree_4_3_u08_r4_network.node[30].content_store 	decision_no[30] 	0
scalar tree_4_3_u08_r4_network.node[30].content_store 	decision_ratio[30] 	1
scalar tree_4_3_u08_r4_network.node[31].core_layer 	interests[31] 	13419
scalar tree_4_3_u08_r4_network.node[31].core_layer 	data[31] 	9973
scalar tree_4_3_u08_r4_network.node[31].content_store 	p_hit[31] 	0.25680005961696
scalar tree_4_3_u08_r4_network.node[31].content_store 	hits[31] 	3446
scalar tree_4_3_u08_r4_network.node[31].content_store 	misses[31] 	9973
scalar tree_4_3_u08_r4_network.node[31].content_store 	decision_yes[31] 	9973
scalar tree_4_3_u08_r4_network.node[31].content_store 	decision_no[31] 	0
scalar tree_4_3_u08_r4_network.node[31].content_store 	decision_ratio[31] 	1
scalar tree_4_3_u08_r4_network.node[32].core_layer 	interests[32] 	14770
scalar tree_4_3_u08_r4_network.node[32].core_layer 	data[32] 	10082
scalar tree_4_3_u08_r4_network.node[32].content_store 	p_hit[32] 	0.31733243060257
scalar tree_4_3_u08_r4_network.node[32].content_store 	hits[32] 	4687
scalar tree_4_3_u08_r4_network.node[32].content_store 	misses[32] 	10083
scalar tree_4_3_u08_r4_network.node[32].content_store 	decision_yes[32] 	10082
scalar tree_4_3_u08_r4_network.node[32].content_store 	decision_no[32] 	0
scalar tree_4_3_u08_r4_network.node[32].content_store 	decision_ratio[32] 	1
scalar tree_4_3_u08_r4_network.node[33].core_layer 	interests[33] 	13394
scalar tree_4_3_u08_r4_network.node[33].core_layer 	data[33] 	10001
scalar tree_4_3_u08_r4_network.node[33].content_store 	p_hit[33] 	0.25332238315664
scalar tree_4_3_u08_r4_network.node[33].content_store 	hits[33] 	3393
scalar tree_4_3_u08_r4_network.node[33].content_store 	misses[33] 	10001
scalar tree_4_3_u08_r4_network.node[33].content_store 	decision_yes[33] 	10001
scalar tree_4_3_u08_r4_network.node[33].content_store 	decision_no[33] 	0
scalar tree_4_3_u08_r4_network.node[33].content_store 	decision_ratio[33] 	1
scalar tree_4_3_u08_r4_network.node[34].core_layer 	interests[34] 	14479
scalar tree_4_3_u08_r4_network.node[34].core_layer 	data[34] 	9956
scalar tree_4_3_u08_r4_network.node[34].content_store 	p_hit[34] 	0.31238345189585
scalar tree_4_3_u08_r4_network.node[34].content_store 	hits[34] 	4523
scalar tree_4_3_u08_r4_network.node[34].content_store 	misses[34] 	9956
scalar tree_4_3_u08_r4_network.node[34].content_store 	decision_yes[34] 	9956
scalar tree_4_3_u08_r4_network.node[34].content_store 	decision_no[34] 	0
scalar tree_4_3_u08_r4_network.node[34].content_store 	decision_ratio[34] 	1
scalar tree_4_3_u08_r4_network.node[35].core_layer 	interests[35] 	13335
scalar tree_4_3_u08_r4_network.node[35].core_layer 	data[35] 	10164
scalar tree_4_3_u08_r4_network.node[35].content_store 	p_hit[35] 	0.23764529433821
scalar tree_4_3_u08_r4_network.node[35].content_store 	hits[35] 	3169
scalar tree_4_3_u08_r4_network.node[35].content_store 	misses[35] 	10166
scalar tree_4_3_u08_r4_network.node[35].content_store 	decision_yes[35] 	10164
scalar tree_4_3_u08_r4_network.node[35].content_store 	decision_no[35] 	0
scalar tree_4_3_u08_r4_network.node[35].content_store 	decision_ratio[35] 	1
scalar tree_4_3_u08_r4_network.node[36].core_layer 	interests[36] 	13761
scalar tree_4_3_u08_r4_network.node[36].core_layer 	data[36] 	10048
scalar tree_4_3_u08_r4_network.node[36].content_store 	p_hit[36] 	0.26982050723058
scalar tree_4_3_u08_r4_network.node[36].content_store 	hits[36] 	3713
scalar tree_4_3_u08_r4_network.node[36].content_store 	misses[36] 	10048
scalar tree_4_3_u08_r4_network.node[36].content_store 	decision_yes[36] 	10048
scalar tree_4_3_u08_r4_network.node[36].content_store 	decision_no[36] 	0
scalar tree_4_3_u08_r4_network.node[36].content_store 	decision_ratio[36] 	1
scalar tree_4_3_u08_r4_network.node[37].core_layer 	interests[37] 	14291
scalar tree_4_3_u08_r4_network.node[37].core_layer 	data[37] 	9976
scalar tree_4_3_u08_r4_network.node[37].content_store 	p_hit[37] 	0.30186830872577
scalar tree_4_3_u08_r4_network.node[37].content_store 	hits[37] 	4314
scalar tree_4_3_u08_r4_network.node[37].content_store 	misses[37] 	9977
scalar tree_4_3_u08_r4_network.node[37].content_store 	decision_yes[37] 	9976
scalar tree_4_3_u08_r4_network.node[37].content_store 	decision_no[37] 	0
scalar tree_4_3_u08_r4_network.node[37].content_store 	decision_ratio[37] 	1
scalar tree_4_3_u08_r4_network.node[38].core_layer 	interests[38] 	13665
scalar tree_4_3_u08_r4_network.node[38].core_layer 	data[38] 	9917
scalar tree_4_3_u08_r4_network.node[38].content_store 	p_hit[38] 	0.27427735089645
scalar tree_4_3_u08_r4_network.node[38].content_store 	hits[38] 	3748
scalar tree_4_3_u08_r4_network.node[38].content_store 	misses[38] 	9917
scalar tree_4_3_u08_r4_network.node[38].content_store 	decision_yes[38] 	9917
scalar tree_4_3_u08_r4_network.node[38].content_store 	decision_no[38] 	0
scalar tree_4_3_u08_r4_network.node[38].content_store 	decision_ratio[38] 	1
scalar tree_4_3_u08_r4_network.node[39].core_layer 	interests[39] 	12334
scalar tree_4_3_u08_r4_network.node[39].core_layer 	data[39] 	10372
scalar tree_4_3_u08_r4_network.node[39].content_store 	p_hit[39] 	0.15907248256851
scalar tree_4_3_u08_r4_network.node[39].content_store 	hits[39] 	1962
scalar tree_4_3_u08_r4_network.node[39].content_store 	misses[39] 	10372
scalar tree_4_3_u08_r4_network.node[39].content_store 	decision_yes[39] 	10372
scalar tree_4_3_u08_r4_network.node[39].content_store 	decision_no[39] 	0
scalar tree_4_3_u08_r4_network.node[39].content_store 	decision_ratio[39] 	1
scalar tree_4_3_u08_r4_network.client[13] 	hdistance[13] 	3.1093194409989
scalar tree_4_3_u08_r4_network.client[13] 	downloads[13] 	12093
scalar tree_4_3_u08_r4_network.client[13] 	avg_time[13] 	0.004967896688
scalar tree_4_3_u08_r4_network.client[14] 	hdistance[14] 	2.9573412698413
scalar tree_4_3_u08_r4_network.client[14] 	downloads[14] 	12096
scalar tree_4_3_u08_r4_network.client[14] 	avg_time[14] 	0.004717371477
scalar tree_4_3_u08_r4_network.client[15] 	hdistance[15] 	2.9572170127261
scalar tree_4_3_u08_r4_network.client[15] 	downloads[15] 	11944
scalar tree_4_3_u08_r4_network.client[15] 	avg_time[15] 	0.004676637824
scalar tree_4_3_u08_r4_network.client[16] 	hdistance[16] 	2.9847066688952
scalar tree_4_3_u08_r4_network.client[16] 	downloads[16] 	11966
scalar tree_4_3_u08_r4_network.client[16] 	avg_time[16] 	0.00476038161
scalar tree_4_3_u08_r4_network.client[17] 	hdistance[17] 	3.0435147849462
scalar tree_4_3_u08_r4_network.client[17] 	downloads[17] 	11904
scalar tree_4_3_u08_r4_network.client[17] 	avg_time[17] 	0.004889781967
scalar tree_4_3_u08_r4_network.client[18] 	hdistance[18] 	2.9290258613567
scalar tree_4_3_u08_r4_network.client[18] 	downloads[18] 	12103
scalar tree_4_3_u08_r4_network.client[18] 	avg_time[18] 	0.004668095817
scalar tree_4_3_u08_r4_network.client[19] 	hdistance[19] 	3.0613901572806
scalar tree_4_3_u08_r4_network.client[19] 	downloads[19] 	11826
scalar tree_4_3_u08_r4_network.client[19] 	avg_time[19] 	0.004878733394
scalar tree_4_3_u08_r4_network.client[20] 	hdistance[20] 	2.9400708024275
scalar tree_4_3_u08_r4_network.client[20] 	downloads[20] 	11864
scalar tree_4_3_u08_r4_network.client[20] 	avg_time[20] 	0.00467779492
scalar tree_4_3_u08_r4_network.client[21] 	hdistance[21] 	3.0815267431154
scalar tree_4_3_u08_r4_network.client[21] 	downloads[21] 	11947
scalar tree_4_3_u08_r4_network.client[21] 	avg_time[21] 	0.004904980957
scalar tree_4_3_u08_r4_network.client[22] 	hdistance[22] 	3.0147928994083
scalar tree_4_3_u08_r4_network.client[22] 	downloads[22] 	12168
scalar tree_4_3_u08_r4_network.client[22] 	avg_time[22] 	0.004841718248
scalar tree_4_3_u08_r4_network.client[23] 	hdistance[23] 	2.9594083536432
scalar tree_4_3_u08_r4_network.client[23] 	downloads[23] 	11899
scalar tree_4_3_u08_r4_network.client[23] 	avg_time[23] 	0.004725291909
scalar tree_4_3_u08_r4_network.client[24] 	hdistance[24] 	2.9479044915679
scalar tree_4_3_u08_r4_network.client[24] 	downloads[24] 	11978
scalar tree_4_3_u08_r4_network.client[24] 	avg_time[24] 	0.00469536679
scalar tree_4_3_u08_r4_network.client[25] 	hdistance[25] 	2.9797140006651
scalar tree_4_3_u08_r4_network.client[25] 	downloads[25] 	12028
scalar tree_4_3_u08_r4_network.client[25] 	avg_time[25] 	0.004751742931
scalar tree_4_3_u08_r4_network.client[26] 	hdistance[26] 	3.0417678078179
scalar tree_4_3_u08_r4_network.client[26] 	downloads[26] 	11947
scalar tree_4_3_u08_r4_network.client[26] 	avg_time[26] 	0.004849414159
scalar tree_4_3_u08_r4_network.client[27] 	hdistance[27] 	2.9302946823608
scalar tree_4_3_u08_r4_network.client[27] 	downloads[27] 	11979
scalar tree_4_3_u08_r4_network.client[27] 	avg_time[27] 	0.004633368531
scalar tree_4_3_u08_r4_network.client[28] 	hdistance[28] 	2.9412750272263
scalar tree_4_3_u08_r4_network.client[28] 	downloads[28] 	11937
scalar tree_4_3_u08_r4_network.client[28] 	avg_time[28] 	0.004688101554
scalar tree_4_3_u08_r4_network.client[29] 	hdistance[29] 	2.985119295037
scalar tree_4_3_u08_r4_network.client[29] 	downloads[29] 	12029
scalar tree_4_3_u08_r4_network.client[29] 	avg_time[29] 	0.004719840745
scalar tree_4_3_u08_r4_network.client[30] 	hdistance[30] 	3.0801063652983
scalar tree_4_3_u08_r4_network.client[30] 	downloads[30] 	12034
scalar tree_4_3_u08_r4_network.client[30] 	avg_time[30] 	0.004911300159
scalar tree_4_3_u08_r4_network.client[31] 	hdistance[31] 	3.0059240717564
scalar tree_4_3_u08_r4_network.client[31] 	downloads[31] 	11985
scalar tree_4_3_u08_r4_network.client[31] 	avg_time[31] 	0.004809402078
scalar tree_4_3_u08_r4_network.client[32] 	hdistance[32] 	2.9325721849921
scalar tree_4_3_u08_r4_network.client[32] 	downloads[32] 	12087
scalar tree_4_3_u08_r4_network.client[32] 	avg_time[32] 	0.004675500317
scalar tree_4_3_u08_r4_network.client[33] 	hdistance[33] 	3.0362032759345
scalar tree_4_3_u08_r4_network.client[33] 	downloads[33] 	11905
scalar tree_4_3_u08_r4_network.client[33] 	avg_time[33] 	0.004860346533
scalar tree_4_3_u08_r4_network.client[34] 	hdistance[34] 	2.9409488559892
scalar tree_4_3_u08_r4_network.client[34] 	downloads[34] 	11888
scalar tree_4_3_u08_r4_network.client[34] 	avg_time[34] 	0.004697436935
scalar tree_4_3_u08_r4_network.client[35] 	hdistance[35] 	3.0270850536747
scalar tree_4_3_u08_r4_network.client[35] 	downloads[35] 	12110
scalar tree_4_3_u08_r4_network.client[35] 	avg_time[35] 	0.004841496272
scalar tree_4_3_u08_r4_network.client[36] 	hdistance[36] 	2.9706276150628
scalar tree_4_3_u08_r4_network.client[36] 	downloads[36] 	11950
scalar tree_4_3_u08_r4_network.client[36] 	avg_time[36] 	0.004732381959
scalar tree_4_3_u08_r4_network.client[37] 	hdistance[37] 	2.9455589777741
scalar tree_4_3_u08_r4_network.client[37] 	downloads[37] 	12013
scalar tree_4_3_u08_r4_network.client[37] 	avg_time[37] 	0.004676633327
scalar tree_4_3_u08_r4_network.client[38] 	hdistance[38] 	2.9561477483555
scalar tree_4_3_u08_r4_network.client[38] 	downloads[38] 	11858
scalar tree_4_3_u08_r4_network.client[38] 	avg_time[38] 	0.004698880161
scalar tree_4_3_u08_r4_network.client[39] 	hdistance[39] 	3.1415835105513
scalar tree_4_3_u08_r4_network.client[39] 	downloads[39] 	12226
scalar tree_4_3_u08_r4_network.client[39] 	avg_time[39] 	0.004915259501
