version 2
run General-171-20160819-17:43:46-23511
attr a 0.9
attr cd lce
attr configname General
attr cr lru
attr datetime 20160819-17:43:46
attr experiment General
attr fsize 1
attr inifile hw5115/scenario_A/NRR-LCE.ini
attr iterationvars "$name=tree_4_3, $un=08, $rep=12, $cd=lce, $cr=lru, $fsize=1, $a=0.9, $sl=nrr, $ttl=1000, $variance=0.05"
attr iterationvars2 "$name=tree_4_3, $un=08, $rep=12, $cd=lce, $cr=lru, $fsize=1, $a=0.9, $sl=nrr, $ttl=1000, $variance=0.05, $repetition=0"
attr measurement "$name=tree_4_3, $un=08, $rep=12, $cd=lce, $cr=lru, $fsize=1, $a=0.9, $sl=nrr, $ttl=1000, $variance=0.05"
attr name tree_4_3
attr network networks.${name}_u${un}_r${rep}_network
attr processid 23511
attr rep 12
attr repetition 0
attr replication #0
attr resultdir results
attr runnumber 171
attr seedset 12
attr sl nrr
attr ttl 1000
attr un 08
attr variance 0.05

scalar . 	a 	0.9
scalar . 	fsize 	1
scalar . 	rep 	12
scalar . 	ttl 	1000
scalar . 	un 	08
scalar . 	variance 	0.05
scalar tree_4_3_u08_r12_network.content_distribution 	repo-0 	0
scalar tree_4_3_u08_r12_network.content_distribution 	client-0 	13
scalar tree_4_3_u08_r12_network.content_distribution 	client-1 	14
scalar tree_4_3_u08_r12_network.content_distribution 	client-2 	15
scalar tree_4_3_u08_r12_network.content_distribution 	client-3 	16
scalar tree_4_3_u08_r12_network.content_distribution 	client-4 	17
scalar tree_4_3_u08_r12_network.content_distribution 	client-5 	18
scalar tree_4_3_u08_r12_network.content_distribution 	client-6 	19
scalar tree_4_3_u08_r12_network.content_distribution 	client-7 	20
scalar tree_4_3_u08_r12_network.content_distribution 	client-8 	21
scalar tree_4_3_u08_r12_network.content_distribution 	client-9 	22
scalar tree_4_3_u08_r12_network.content_distribution 	client-10 	23
scalar tree_4_3_u08_r12_network.content_distribution 	client-11 	24
scalar tree_4_3_u08_r12_network.content_distribution 	client-12 	25
scalar tree_4_3_u08_r12_network.content_distribution 	client-13 	26
scalar tree_4_3_u08_r12_network.content_distribution 	client-14 	27
scalar tree_4_3_u08_r12_network.content_distribution 	client-15 	28
scalar tree_4_3_u08_r12_network.content_distribution 	client-16 	29
scalar tree_4_3_u08_r12_network.content_distribution 	client-17 	30
scalar tree_4_3_u08_r12_network.content_distribution 	client-18 	31
scalar tree_4_3_u08_r12_network.content_distribution 	client-19 	32
scalar tree_4_3_u08_r12_network.content_distribution 	client-20 	33
scalar tree_4_3_u08_r12_network.content_distribution 	client-21 	34
scalar tree_4_3_u08_r12_network.content_distribution 	client-22 	35
scalar tree_4_3_u08_r12_network.content_distribution 	client-23 	36
scalar tree_4_3_u08_r12_network.content_distribution 	client-24 	37
scalar tree_4_3_u08_r12_network.content_distribution 	client-25 	38
scalar tree_4_3_u08_r12_network.content_distribution 	client-26 	39
scalar tree_4_3_u08_r12_network.content_distribution 	repo-0_card 	100000
scalar tree_4_3_u08_r12_network.content_distribution 	repo-0_price 	0
scalar tree_4_3_u08_r12_network.statistics 	stabilization_time 	487
scalar tree_4_3_u08_r12_network.statistics 	p_hit 	0.20564229004203
scalar tree_4_3_u08_r12_network.statistics 	interests 	27429.775
scalar tree_4_3_u08_r12_network.statistics 	data 	19344.5
scalar tree_4_3_u08_r12_network.statistics 	hdistance 	2.9927045883875
scalar tree_4_3_u08_r12_network.statistics 	avg_time 	0.004784795692
scalar tree_4_3_u08_r12_network.statistics 	downloads 	323402
scalar tree_4_3_u08_r12_network.statistics 	total_cost 	0
scalar tree_4_3_u08_r12_network.statistics 	total_replicas 	100000
scalar tree_4_3_u08_r12_network.statistics 	inner_hit 	0.39961719469886
scalar tree_4_3_u08_r12_network.node[0].core_layer 	interests[0] 	194573
scalar tree_4_3_u08_r12_network.node[0].core_layer 	repo_load[0] 	194165
scalar tree_4_3_u08_r12_network.node[0].core_layer 	data[0] 	0
scalar tree_4_3_u08_r12_network.node[0].core_layer 	repo_int[0] 	194165
scalar tree_4_3_u08_r12_network.node[0].content_store 	p_hit[0] 	0.0020968993642489
scalar tree_4_3_u08_r12_network.node[0].content_store 	hits[0] 	408
scalar tree_4_3_u08_r12_network.node[0].content_store 	misses[0] 	194165
scalar tree_4_3_u08_r12_network.node[0].content_store 	decision_yes[0] 	194165
scalar tree_4_3_u08_r12_network.node[0].content_store 	decision_no[0] 	0
scalar tree_4_3_u08_r12_network.node[0].content_store 	decision_ratio[0] 	1
scalar tree_4_3_u08_r12_network.node[1].core_layer 	interests[1] 	144644
scalar tree_4_3_u08_r12_network.node[1].core_layer 	data[1] 	143342
scalar tree_4_3_u08_r12_network.node[1].content_store 	p_hit[1] 	0.0089599292054976
scalar tree_4_3_u08_r12_network.node[1].content_store 	hits[1] 	1296
scalar tree_4_3_u08_r12_network.node[1].content_store 	misses[1] 	143348
scalar tree_4_3_u08_r12_network.node[1].content_store 	decision_yes[1] 	143322
scalar tree_4_3_u08_r12_network.node[1].content_store 	decision_no[1] 	0
scalar tree_4_3_u08_r12_network.node[1].content_store 	decision_ratio[1] 	1
scalar tree_4_3_u08_r12_network.node[2].core_layer 	interests[2] 	69808
scalar tree_4_3_u08_r12_network.node[2].core_layer 	data[2] 	68253
scalar tree_4_3_u08_r12_network.node[2].content_store 	p_hit[2] 	0.022275383910154
scalar tree_4_3_u08_r12_network.node[2].content_store 	hits[2] 	1555
scalar tree_4_3_u08_r12_network.node[2].content_store 	misses[2] 	68253
scalar tree_4_3_u08_r12_network.node[2].content_store 	decision_yes[2] 	68249
scalar tree_4_3_u08_r12_network.node[2].content_store 	decision_no[2] 	0
scalar tree_4_3_u08_r12_network.node[2].content_store 	decision_ratio[2] 	1
scalar tree_4_3_u08_r12_network.node[3].core_layer 	interests[3] 	17852
scalar tree_4_3_u08_r12_network.node[3].core_layer 	data[3] 	14071
scalar tree_4_3_u08_r12_network.node[3].content_store 	p_hit[3] 	0.21174098140264
scalar tree_4_3_u08_r12_network.node[3].content_store 	hits[3] 	3780
scalar tree_4_3_u08_r12_network.node[3].content_store 	misses[3] 	14072
scalar tree_4_3_u08_r12_network.node[3].content_store 	decision_yes[3] 	14070
scalar tree_4_3_u08_r12_network.node[3].content_store 	decision_no[3] 	0
scalar tree_4_3_u08_r12_network.node[3].content_store 	decision_ratio[3] 	1
scalar tree_4_3_u08_r12_network.node[4].core_layer 	interests[4] 	40199
scalar tree_4_3_u08_r12_network.node[4].core_layer 	data[4] 	38396
scalar tree_4_3_u08_r12_network.node[4].content_store 	p_hit[4] 	0.044802109505212
scalar tree_4_3_u08_r12_network.node[4].content_store 	hits[4] 	1801
scalar tree_4_3_u08_r12_network.node[4].content_store 	misses[4] 	38398
scalar tree_4_3_u08_r12_network.node[4].content_store 	decision_yes[4] 	38391
scalar tree_4_3_u08_r12_network.node[4].content_store 	decision_no[4] 	0
scalar tree_4_3_u08_r12_network.node[4].content_store 	decision_ratio[4] 	1
scalar tree_4_3_u08_r12_network.node[5].core_layer 	interests[5] 	36009
scalar tree_4_3_u08_r12_network.node[5].core_layer 	data[5] 	32575
scalar tree_4_3_u08_r12_network.node[5].content_store 	p_hit[5] 	0.095365047626982
scalar tree_4_3_u08_r12_network.node[5].content_store 	hits[5] 	3434
scalar tree_4_3_u08_r12_network.node[5].content_store 	misses[5] 	32575
scalar tree_4_3_u08_r12_network.node[5].content_store 	decision_yes[5] 	32571
scalar tree_4_3_u08_r12_network.node[5].content_store 	decision_no[5] 	0
scalar tree_4_3_u08_r12_network.node[5].content_store 	decision_ratio[5] 	1
scalar tree_4_3_u08_r12_network.node[6].core_layer 	interests[6] 	25211
scalar tree_4_3_u08_r12_network.node[6].core_layer 	data[6] 	21690
scalar tree_4_3_u08_r12_network.node[6].content_store 	p_hit[6] 	0.13962159374876
scalar tree_4_3_u08_r12_network.node[6].content_store 	hits[6] 	3520
scalar tree_4_3_u08_r12_network.node[6].content_store 	misses[6] 	21691
scalar tree_4_3_u08_r12_network.node[6].content_store 	decision_yes[6] 	21689
scalar tree_4_3_u08_r12_network.node[6].content_store 	decision_no[6] 	0
scalar tree_4_3_u08_r12_network.node[6].content_store 	decision_ratio[6] 	1
scalar tree_4_3_u08_r12_network.node[7].core_layer 	interests[7] 	51693
scalar tree_4_3_u08_r12_network.node[7].core_layer 	data[7] 	49005
scalar tree_4_3_u08_r12_network.node[7].content_store 	p_hit[7] 	0.05184454374867
scalar tree_4_3_u08_r12_network.node[7].content_store 	hits[7] 	2680
scalar tree_4_3_u08_r12_network.node[7].content_store 	misses[7] 	49013
scalar tree_4_3_u08_r12_network.node[7].content_store 	decision_yes[7] 	48997
scalar tree_4_3_u08_r12_network.node[7].content_store 	decision_no[7] 	0
scalar tree_4_3_u08_r12_network.node[7].content_store 	decision_ratio[7] 	1
scalar tree_4_3_u08_r12_network.node[8].core_layer 	interests[8] 	30505
scalar tree_4_3_u08_r12_network.node[8].core_layer 	data[8] 	28505
scalar tree_4_3_u08_r12_network.node[8].content_store 	p_hit[8] 	0.065563022455335
scalar tree_4_3_u08_r12_network.node[8].content_store 	hits[8] 	2000
scalar tree_4_3_u08_r12_network.node[8].content_store 	misses[8] 	28505
scalar tree_4_3_u08_r12_network.node[8].content_store 	decision_yes[8] 	28505
scalar tree_4_3_u08_r12_network.node[8].content_store 	decision_no[8] 	0
scalar tree_4_3_u08_r12_network.node[8].content_store 	decision_ratio[8] 	1
scalar tree_4_3_u08_r12_network.node[9].core_layer 	interests[9] 	18623
scalar tree_4_3_u08_r12_network.node[9].core_layer 	data[9] 	13768
scalar tree_4_3_u08_r12_network.node[9].content_store 	p_hit[9] 	0.26069913547764
scalar tree_4_3_u08_r12_network.node[9].content_store 	hits[9] 	4855
scalar tree_4_3_u08_r12_network.node[9].content_store 	misses[9] 	13768
scalar tree_4_3_u08_r12_network.node[9].content_store 	decision_yes[9] 	13768
scalar tree_4_3_u08_r12_network.node[9].content_store 	decision_no[9] 	0
scalar tree_4_3_u08_r12_network.node[9].content_store 	decision_ratio[9] 	1
scalar tree_4_3_u08_r12_network.node[10].core_layer 	interests[10] 	42124
scalar tree_4_3_u08_r12_network.node[10].core_layer 	data[10] 	39694
scalar tree_4_3_u08_r12_network.node[10].content_store 	p_hit[10] 	0.057686829360934
scalar tree_4_3_u08_r12_network.node[10].content_store 	hits[10] 	2430
scalar tree_4_3_u08_r12_network.node[10].content_store 	misses[10] 	39694
scalar tree_4_3_u08_r12_network.node[10].content_store 	decision_yes[10] 	39692
scalar tree_4_3_u08_r12_network.node[10].content_store 	decision_no[10] 	0
scalar tree_4_3_u08_r12_network.node[10].content_store 	decision_ratio[10] 	1
scalar tree_4_3_u08_r12_network.node[11].core_layer 	interests[11] 	44980
scalar tree_4_3_u08_r12_network.node[11].core_layer 	data[11] 	42116
scalar tree_4_3_u08_r12_network.node[11].content_store 	p_hit[11] 	0.063628279235216
scalar tree_4_3_u08_r12_network.node[11].content_store 	hits[11] 	2862
scalar tree_4_3_u08_r12_network.node[11].content_store 	misses[11] 	42118
scalar tree_4_3_u08_r12_network.node[11].content_store 	decision_yes[11] 	42110
scalar tree_4_3_u08_r12_network.node[11].content_store 	decision_no[11] 	0
scalar tree_4_3_u08_r12_network.node[11].content_store 	decision_ratio[11] 	1
scalar tree_4_3_u08_r12_network.node[12].core_layer 	interests[12] 	13265
scalar tree_4_3_u08_r12_network.node[12].core_layer 	data[12] 	10846
scalar tree_4_3_u08_r12_network.node[12].content_store 	p_hit[12] 	0.18228420655861
scalar tree_4_3_u08_r12_network.node[12].content_store 	hits[12] 	2418
scalar tree_4_3_u08_r12_network.node[12].content_store 	misses[12] 	10847
scalar tree_4_3_u08_r12_network.node[12].content_store 	decision_yes[12] 	10846
scalar tree_4_3_u08_r12_network.node[12].content_store 	decision_no[12] 	0
scalar tree_4_3_u08_r12_network.node[12].content_store 	decision_ratio[12] 	1
scalar tree_4_3_u08_r12_network.node[13].core_layer 	interests[13] 	13417
scalar tree_4_3_u08_r12_network.node[13].core_layer 	data[13] 	10320
scalar tree_4_3_u08_r12_network.node[13].content_store 	p_hit[13] 	0.23075203100544
scalar tree_4_3_u08_r12_network.node[13].content_store 	hits[13] 	3096
scalar tree_4_3_u08_r12_network.node[13].content_store 	misses[13] 	10321
scalar tree_4_3_u08_r12_network.node[13].content_store 	decision_yes[13] 	10320
scalar tree_4_3_u08_r12_network.node[13].content_store 	decision_no[13] 	0
scalar tree_4_3_u08_r12_network.node[13].content_store 	decision_ratio[13] 	1
scalar tree_4_3_u08_r12_network.node[14].core_layer 	interests[14] 	14306
scalar tree_4_3_u08_r12_network.node[14].core_layer 	data[14] 	10076
scalar tree_4_3_u08_r12_network.node[14].content_store 	p_hit[14] 	0.29568013420942
scalar tree_4_3_u08_r12_network.node[14].content_store 	hits[14] 	4230
scalar tree_4_3_u08_r12_network.node[14].content_store 	misses[14] 	10076
scalar tree_4_3_u08_r12_network.node[14].content_store 	decision_yes[14] 	10076
scalar tree_4_3_u08_r12_network.node[14].content_store 	decision_no[14] 	0
scalar tree_4_3_u08_r12_network.node[14].content_store 	decision_ratio[14] 	1
scalar tree_4_3_u08_r12_network.node[15].core_layer 	interests[15] 	13217
scalar tree_4_3_u08_r12_network.node[15].core_layer 	data[15] 	10163
scalar tree_4_3_u08_r12_network.node[15].content_store 	p_hit[15] 	0.23091473102822
scalar tree_4_3_u08_r12_network.node[15].content_store 	hits[15] 	3052
scalar tree_4_3_u08_r12_network.node[15].content_store 	misses[15] 	10165
scalar tree_4_3_u08_r12_network.node[15].content_store 	decision_yes[15] 	10163
scalar tree_4_3_u08_r12_network.node[15].content_store 	decision_no[15] 	0
scalar tree_4_3_u08_r12_network.node[15].content_store 	decision_ratio[15] 	1
scalar tree_4_3_u08_r12_network.node[16].core_layer 	interests[16] 	14165
scalar tree_4_3_u08_r12_network.node[16].core_layer 	data[16] 	9879
scalar tree_4_3_u08_r12_network.node[16].content_store 	p_hit[16] 	0.30257677373809
scalar tree_4_3_u08_r12_network.node[16].content_store 	hits[16] 	4286
scalar tree_4_3_u08_r12_network.node[16].content_store 	misses[16] 	9879
scalar tree_4_3_u08_r12_network.node[16].content_store 	decision_yes[16] 	9879
scalar tree_4_3_u08_r12_network.node[16].content_store 	decision_no[16] 	0
scalar tree_4_3_u08_r12_network.node[16].content_store 	decision_ratio[16] 	1
scalar tree_4_3_u08_r12_network.node[17].core_layer 	interests[17] 	13266
scalar tree_4_3_u08_r12_network.node[17].core_layer 	data[17] 	9982
scalar tree_4_3_u08_r12_network.node[17].content_store 	p_hit[17] 	0.24739936680235
scalar tree_4_3_u08_r12_network.node[17].content_store 	hits[17] 	3282
scalar tree_4_3_u08_r12_network.node[17].content_store 	misses[17] 	9984
scalar tree_4_3_u08_r12_network.node[17].content_store 	decision_yes[17] 	9982
scalar tree_4_3_u08_r12_network.node[17].content_store 	decision_no[17] 	0
scalar tree_4_3_u08_r12_network.node[17].content_store 	decision_ratio[17] 	1
scalar tree_4_3_u08_r12_network.node[18].core_layer 	interests[18] 	14011
scalar tree_4_3_u08_r12_network.node[18].core_layer 	data[18] 	9852
scalar tree_4_3_u08_r12_network.node[18].content_store 	p_hit[18] 	0.29683819855828
scalar tree_4_3_u08_r12_network.node[18].content_store 	hits[18] 	4159
scalar tree_4_3_u08_r12_network.node[18].content_store 	misses[18] 	9852
scalar tree_4_3_u08_r12_network.node[18].content_store 	decision_yes[18] 	9852
scalar tree_4_3_u08_r12_network.node[18].content_store 	decision_no[18] 	0
scalar tree_4_3_u08_r12_network.node[18].content_store 	decision_ratio[18] 	1
scalar tree_4_3_u08_r12_network.node[19].core_layer 	interests[19] 	12853
scalar tree_4_3_u08_r12_network.node[19].core_layer 	data[19] 	10013
scalar tree_4_3_u08_r12_network.node[19].content_store 	p_hit[19] 	0.22096008713919
scalar tree_4_3_u08_r12_network.node[19].content_store 	hits[19] 	2840
scalar tree_4_3_u08_r12_network.node[19].content_store 	misses[19] 	10013
scalar tree_4_3_u08_r12_network.node[19].content_store 	decision_yes[19] 	10013
scalar tree_4_3_u08_r12_network.node[19].content_store 	decision_no[19] 	0
scalar tree_4_3_u08_r12_network.node[19].content_store 	decision_ratio[19] 	1
scalar tree_4_3_u08_r12_network.node[20].core_layer 	interests[20] 	14230
scalar tree_4_3_u08_r12_network.node[20].core_layer 	data[20] 	10079
scalar tree_4_3_u08_r12_network.node[20].content_store 	p_hit[20] 	0.29170765987351
scalar tree_4_3_u08_r12_network.node[20].content_store 	hits[20] 	4151
scalar tree_4_3_u08_r12_network.node[20].content_store 	misses[20] 	10079
scalar tree_4_3_u08_r12_network.node[20].content_store 	decision_yes[20] 	10079
scalar tree_4_3_u08_r12_network.node[20].content_store 	decision_no[20] 	0
scalar tree_4_3_u08_r12_network.node[20].content_store 	decision_ratio[20] 	1
scalar tree_4_3_u08_r12_network.node[21].core_layer 	interests[21] 	12794
scalar tree_4_3_u08_r12_network.node[21].core_layer 	data[21] 	9985
scalar tree_4_3_u08_r12_network.node[21].content_store 	p_hit[21] 	0.21955604189464
scalar tree_4_3_u08_r12_network.node[21].content_store 	hits[21] 	2809
scalar tree_4_3_u08_r12_network.node[21].content_store 	misses[21] 	9985
scalar tree_4_3_u08_r12_network.node[21].content_store 	decision_yes[21] 	9985
scalar tree_4_3_u08_r12_network.node[21].content_store 	decision_no[21] 	0
scalar tree_4_3_u08_r12_network.node[21].content_store 	decision_ratio[21] 	1
scalar tree_4_3_u08_r12_network.node[22].core_layer 	interests[22] 	13661
scalar tree_4_3_u08_r12_network.node[22].core_layer 	data[22] 	10209
scalar tree_4_3_u08_r12_network.node[22].content_store 	p_hit[22] 	0.25261693873069
scalar tree_4_3_u08_r12_network.node[22].content_store 	hits[22] 	3451
scalar tree_4_3_u08_r12_network.node[22].content_store 	misses[22] 	10210
scalar tree_4_3_u08_r12_network.node[22].content_store 	decision_yes[22] 	10209
scalar tree_4_3_u08_r12_network.node[22].content_store 	decision_no[22] 	0
scalar tree_4_3_u08_r12_network.node[22].content_store 	decision_ratio[22] 	1
scalar tree_4_3_u08_r12_network.node[23].core_layer 	interests[23] 	14076
scalar tree_4_3_u08_r12_network.node[23].core_layer 	data[23] 	9954
scalar tree_4_3_u08_r12_network.node[23].content_store 	p_hit[23] 	0.29269678886047
scalar tree_4_3_u08_r12_network.node[23].content_store 	hits[23] 	4120
scalar tree_4_3_u08_r12_network.node[23].content_store 	misses[23] 	9956
scalar tree_4_3_u08_r12_network.node[23].content_store 	decision_yes[23] 	9954
scalar tree_4_3_u08_r12_network.node[23].content_store 	decision_no[23] 	0
scalar tree_4_3_u08_r12_network.node[23].content_store 	decision_ratio[23] 	1
scalar tree_4_3_u08_r12_network.node[24].core_layer 	interests[24] 	14167
scalar tree_4_3_u08_r12_network.node[24].core_layer 	data[24] 	9962
scalar tree_4_3_u08_r12_network.node[24].content_store 	p_hit[24] 	0.29681654549305
scalar tree_4_3_u08_r12_network.node[24].content_store 	hits[24] 	4205
scalar tree_4_3_u08_r12_network.node[24].content_store 	misses[24] 	9962
scalar tree_4_3_u08_r12_network.node[24].content_store 	decision_yes[24] 	9962
scalar tree_4_3_u08_r12_network.node[24].content_store 	decision_no[24] 	0
scalar tree_4_3_u08_r12_network.node[24].content_store 	decision_ratio[24] 	1
scalar tree_4_3_u08_r12_network.node[25].core_layer 	interests[25] 	14159
scalar tree_4_3_u08_r12_network.node[25].core_layer 	data[25] 	9939
scalar tree_4_3_u08_r12_network.node[25].content_store 	p_hit[25] 	0.29804364715022
scalar tree_4_3_u08_r12_network.node[25].content_store 	hits[25] 	4220
scalar tree_4_3_u08_r12_network.node[25].content_store 	misses[25] 	9939
scalar tree_4_3_u08_r12_network.node[25].content_store 	decision_yes[25] 	9939
scalar tree_4_3_u08_r12_network.node[25].content_store 	decision_no[25] 	0
scalar tree_4_3_u08_r12_network.node[25].content_store 	decision_ratio[25] 	1
scalar tree_4_3_u08_r12_network.node[26].core_layer 	interests[26] 	12954
scalar tree_4_3_u08_r12_network.node[26].core_layer 	data[26] 	10185
scalar tree_4_3_u08_r12_network.node[26].content_store 	p_hit[26] 	0.21360197622356
scalar tree_4_3_u08_r12_network.node[26].content_store 	hits[26] 	2767
scalar tree_4_3_u08_r12_network.node[26].content_store 	misses[26] 	10187
scalar tree_4_3_u08_r12_network.node[26].content_store 	decision_yes[26] 	10185
scalar tree_4_3_u08_r12_network.node[26].content_store 	decision_no[26] 	0
scalar tree_4_3_u08_r12_network.node[26].content_store 	decision_ratio[26] 	1
scalar tree_4_3_u08_r12_network.node[27].core_layer 	interests[27] 	13803
scalar tree_4_3_u08_r12_network.node[27].core_layer 	data[27] 	10064
scalar tree_4_3_u08_r12_network.node[27].content_store 	p_hit[27] 	0.27088314134608
scalar tree_4_3_u08_r12_network.node[27].content_store 	hits[27] 	3739
scalar tree_4_3_u08_r12_network.node[27].content_store 	misses[27] 	10064
scalar tree_4_3_u08_r12_network.node[27].content_store 	decision_yes[27] 	10064
scalar tree_4_3_u08_r12_network.node[27].content_store 	decision_no[27] 	0
scalar tree_4_3_u08_r12_network.node[27].content_store 	decision_ratio[27] 	1
scalar tree_4_3_u08_r12_network.node[28].core_layer 	interests[28] 	14155
scalar tree_4_3_u08_r12_network.node[28].core_layer 	data[28] 	10014
scalar tree_4_3_u08_r12_network.node[28].content_store 	p_hit[28] 	0.29254680324974
scalar tree_4_3_u08_r12_network.node[28].content_store 	hits[28] 	4141
scalar tree_4_3_u08_r12_network.node[28].content_store 	misses[28] 	10014
scalar tree_4_3_u08_r12_network.node[28].content_store 	decision_yes[28] 	10014
scalar tree_4_3_u08_r12_network.node[28].content_store 	decision_no[28] 	0
scalar tree_4_3_u08_r12_network.node[28].content_store 	decision_ratio[28] 	1
scalar tree_4_3_u08_r12_network.node[29].core_layer 	interests[29] 	13792
scalar tree_4_3_u08_r12_network.node[29].core_layer 	data[29] 	9948
scalar tree_4_3_u08_r12_network.node[29].content_store 	p_hit[29] 	0.27863979118329
scalar tree_4_3_u08_r12_network.node[29].content_store 	hits[29] 	3843
scalar tree_4_3_u08_r12_network.node[29].content_store 	misses[29] 	9949
scalar tree_4_3_u08_r12_network.node[29].content_store 	decision_yes[29] 	9948
scalar tree_4_3_u08_r12_network.node[29].content_store 	decision_no[29] 	0
scalar tree_4_3_u08_r12_network.node[29].content_store 	decision_ratio[29] 	1
scalar tree_4_3_u08_r12_network.node[30].core_layer 	interests[30] 	12415
scalar tree_4_3_u08_r12_network.node[30].core_layer 	data[30] 	10044
scalar tree_4_3_u08_r12_network.node[30].content_store 	p_hit[30] 	0.19089810712847
scalar tree_4_3_u08_r12_network.node[30].content_store 	hits[30] 	2370
scalar tree_4_3_u08_r12_network.node[30].content_store 	misses[30] 	10045
scalar tree_4_3_u08_r12_network.node[30].content_store 	decision_yes[30] 	10044
scalar tree_4_3_u08_r12_network.node[30].content_store 	decision_no[30] 	0
scalar tree_4_3_u08_r12_network.node[30].content_store 	decision_ratio[30] 	1
scalar tree_4_3_u08_r12_network.node[31].core_layer 	interests[31] 	13221
scalar tree_4_3_u08_r12_network.node[31].core_layer 	data[31] 	10068
scalar tree_4_3_u08_r12_network.node[31].content_store 	p_hit[31] 	0.23848422963467
scalar tree_4_3_u08_r12_network.node[31].content_store 	hits[31] 	3153
scalar tree_4_3_u08_r12_network.node[31].content_store 	misses[31] 	10068
scalar tree_4_3_u08_r12_network.node[31].content_store 	decision_yes[31] 	10068
scalar tree_4_3_u08_r12_network.node[31].content_store 	decision_no[31] 	0
scalar tree_4_3_u08_r12_network.node[31].content_store 	decision_ratio[31] 	1
scalar tree_4_3_u08_r12_network.node[32].core_layer 	interests[32] 	14737
scalar tree_4_3_u08_r12_network.node[32].core_layer 	data[32] 	10050
scalar tree_4_3_u08_r12_network.node[32].content_store 	p_hit[32] 	0.31804302096763
scalar tree_4_3_u08_r12_network.node[32].content_store 	hits[32] 	4687
scalar tree_4_3_u08_r12_network.node[32].content_store 	misses[32] 	10050
scalar tree_4_3_u08_r12_network.node[32].content_store 	decision_yes[32] 	10050
scalar tree_4_3_u08_r12_network.node[32].content_store 	decision_no[32] 	0
scalar tree_4_3_u08_r12_network.node[32].content_store 	decision_ratio[32] 	1
scalar tree_4_3_u08_r12_network.node[33].core_layer 	interests[33] 	13775
scalar tree_4_3_u08_r12_network.node[33].core_layer 	data[33] 	10078
scalar tree_4_3_u08_r12_network.node[33].content_store 	p_hit[33] 	0.26838475499093
scalar tree_4_3_u08_r12_network.node[33].content_store 	hits[33] 	3697
scalar tree_4_3_u08_r12_network.node[33].content_store 	misses[33] 	10078
scalar tree_4_3_u08_r12_network.node[33].content_store 	decision_yes[33] 	10078
scalar tree_4_3_u08_r12_network.node[33].content_store 	decision_no[33] 	0
scalar tree_4_3_u08_r12_network.node[33].content_store 	decision_ratio[33] 	1
scalar tree_4_3_u08_r12_network.node[34].core_layer 	interests[34] 	13283
scalar tree_4_3_u08_r12_network.node[34].core_layer 	data[34] 	10044
scalar tree_4_3_u08_r12_network.node[34].content_store 	p_hit[34] 	0.24392080102387
scalar tree_4_3_u08_r12_network.node[34].content_store 	hits[34] 	3240
scalar tree_4_3_u08_r12_network.node[34].content_store 	misses[34] 	10043
scalar tree_4_3_u08_r12_network.node[34].content_store 	decision_yes[34] 	10044
scalar tree_4_3_u08_r12_network.node[34].content_store 	decision_no[34] 	0
scalar tree_4_3_u08_r12_network.node[34].content_store 	decision_ratio[34] 	1
scalar tree_4_3_u08_r12_network.node[35].core_layer 	interests[35] 	13432
scalar tree_4_3_u08_r12_network.node[35].core_layer 	data[35] 	10127
scalar tree_4_3_u08_r12_network.node[35].content_store 	p_hit[35] 	0.24605419892793
scalar tree_4_3_u08_r12_network.node[35].content_store 	hits[35] 	3305
scalar tree_4_3_u08_r12_network.node[35].content_store 	misses[35] 	10127
scalar tree_4_3_u08_r12_network.node[35].content_store 	decision_yes[35] 	10127
scalar tree_4_3_u08_r12_network.node[35].content_store 	decision_no[35] 	0
scalar tree_4_3_u08_r12_network.node[35].content_store 	decision_ratio[35] 	1
scalar tree_4_3_u08_r12_network.node[36].core_layer 	interests[36] 	13292
scalar tree_4_3_u08_r12_network.node[36].core_layer 	data[36] 	9951
scalar tree_4_3_u08_r12_network.node[36].content_store 	p_hit[36] 	0.25142943123683
scalar tree_4_3_u08_r12_network.node[36].content_store 	hits[36] 	3342
scalar tree_4_3_u08_r12_network.node[36].content_store 	misses[36] 	9950
scalar tree_4_3_u08_r12_network.node[36].content_store 	decision_yes[36] 	9951
scalar tree_4_3_u08_r12_network.node[36].content_store 	decision_no[36] 	0
scalar tree_4_3_u08_r12_network.node[36].content_store 	decision_ratio[36] 	1
scalar tree_4_3_u08_r12_network.node[37].core_layer 	interests[37] 	13764
scalar tree_4_3_u08_r12_network.node[37].core_layer 	data[37] 	10135
scalar tree_4_3_u08_r12_network.node[37].content_store 	p_hit[37] 	0.26358616681197
scalar tree_4_3_u08_r12_network.node[37].content_store 	hits[37] 	3628
scalar tree_4_3_u08_r12_network.node[37].content_store 	misses[37] 	10136
scalar tree_4_3_u08_r12_network.node[37].content_store 	decision_yes[37] 	10135
scalar tree_4_3_u08_r12_network.node[37].content_store 	decision_no[37] 	0
scalar tree_4_3_u08_r12_network.node[37].content_store 	decision_ratio[37] 	1
scalar tree_4_3_u08_r12_network.node[38].core_layer 	interests[38] 	14476
scalar tree_4_3_u08_r12_network.node[38].core_layer 	data[38] 	10278
scalar tree_4_3_u08_r12_network.node[38].content_store 	p_hit[38] 	0.28992815694943
scalar tree_4_3_u08_r12_network.node[38].content_store 	hits[38] 	4197
scalar tree_4_3_u08_r12_network.node[38].content_store 	misses[38] 	10279
scalar tree_4_3_u08_r12_network.node[38].content_store 	decision_yes[38] 	10278
scalar tree_4_3_u08_r12_network.node[38].content_store 	decision_no[38] 	0
scalar tree_4_3_u08_r12_network.node[38].content_store 	decision_ratio[38] 	1
scalar tree_4_3_u08_r12_network.node[39].core_layer 	interests[39] 	12284
scalar tree_4_3_u08_r12_network.node[39].core_layer 	data[39] 	10120
scalar tree_4_3_u08_r12_network.node[39].content_store 	p_hit[39] 	0.17616411592315
scalar tree_4_3_u08_r12_network.node[39].content_store 	hits[39] 	2164
scalar tree_4_3_u08_r12_network.node[39].content_store 	misses[39] 	10120
scalar tree_4_3_u08_r12_network.node[39].content_store 	decision_yes[39] 	10120
scalar tree_4_3_u08_r12_network.node[39].content_store 	decision_no[39] 	0
scalar tree_4_3_u08_r12_network.node[39].content_store 	decision_ratio[39] 	1
scalar tree_4_3_u08_r12_network.client[13] 	hdistance[13] 	3.0925368275413
scalar tree_4_3_u08_r12_network.client[13] 	downloads[13] 	12287
scalar tree_4_3_u08_r12_network.client[13] 	avg_time[13] 	0.004936344714
scalar tree_4_3_u08_r12_network.client[14] 	hdistance[14] 	2.96318457575
scalar tree_4_3_u08_r12_network.client[14] 	downloads[14] 	12033
scalar tree_4_3_u08_r12_network.client[14] 	avg_time[14] 	0.004724970425
scalar tree_4_3_u08_r12_network.client[15] 	hdistance[15] 	3.1009942004971
scalar tree_4_3_u08_r12_network.client[15] 	downloads[15] 	12070
scalar tree_4_3_u08_r12_network.client[15] 	avg_time[15] 	0.004945976724
scalar tree_4_3_u08_r12_network.client[16] 	hdistance[16] 	2.9483472821033
scalar tree_4_3_u08_r12_network.client[16] 	downloads[16] 	11829
scalar tree_4_3_u08_r12_network.client[16] 	avg_time[16] 	0.004713091314
scalar tree_4_3_u08_r12_network.client[17] 	hdistance[17] 	3.0348729207126
scalar tree_4_3_u08_r12_network.client[17] 	downloads[17] 	11843
scalar tree_4_3_u08_r12_network.client[17] 	avg_time[17] 	0.004877306792
scalar tree_4_3_u08_r12_network.client[18] 	hdistance[18] 	2.9079324894515
scalar tree_4_3_u08_r12_network.client[18] 	downloads[18] 	11850
scalar tree_4_3_u08_r12_network.client[18] 	avg_time[18] 	0.00463780295
scalar tree_4_3_u08_r12_network.client[19] 	hdistance[19] 	3.0492507156087
scalar tree_4_3_u08_r12_network.client[19] 	downloads[19] 	11878
scalar tree_4_3_u08_r12_network.client[19] 	avg_time[19] 	0.004901495605
scalar tree_4_3_u08_r12_network.client[20] 	hdistance[20] 	2.9463630296964
scalar tree_4_3_u08_r12_network.client[20] 	downloads[20] 	11988
scalar tree_4_3_u08_r12_network.client[20] 	avg_time[20] 	0.004705778338
scalar tree_4_3_u08_r12_network.client[21] 	hdistance[21] 	3.050266114725
scalar tree_4_3_u08_r12_network.client[21] 	downloads[21] 	11837
scalar tree_4_3_u08_r12_network.client[21] 	avg_time[21] 	0.004902083741
scalar tree_4_3_u08_r12_network.client[22] 	hdistance[22] 	3.013714379568
scalar tree_4_3_u08_r12_network.client[22] 	downloads[22] 	12177
scalar tree_4_3_u08_r12_network.client[22] 	avg_time[22] 	0.004845393985
scalar tree_4_3_u08_r12_network.client[23] 	hdistance[23] 	2.9684441444482
scalar tree_4_3_u08_r12_network.client[23] 	downloads[23] 	11852
scalar tree_4_3_u08_r12_network.client[23] 	avg_time[23] 	0.004739609701
scalar tree_4_3_u08_r12_network.client[24] 	hdistance[24] 	2.8895935909205
scalar tree_4_3_u08_r12_network.client[24] 	downloads[24] 	11983
scalar tree_4_3_u08_r12_network.client[24] 	avg_time[24] 	0.004608476366
scalar tree_4_3_u08_r12_network.client[25] 	hdistance[25] 	2.9453295321147
scalar tree_4_3_u08_r12_network.client[25] 	downloads[25] 	11926
scalar tree_4_3_u08_r12_network.client[25] 	avg_time[25] 	0.00469543746
scalar tree_4_3_u08_r12_network.client[26] 	hdistance[26] 	3.0816292601829
scalar tree_4_3_u08_r12_network.client[26] 	downloads[26] 	12030
scalar tree_4_3_u08_r12_network.client[26] 	avg_time[26] 	0.004913861407
scalar tree_4_3_u08_r12_network.client[27] 	hdistance[27] 	2.940433364009
scalar tree_4_3_u08_r12_network.client[27] 	downloads[27] 	11953
scalar tree_4_3_u08_r12_network.client[27] 	avg_time[27] 	0.004680452354
scalar tree_4_3_u08_r12_network.client[28] 	hdistance[28] 	2.9258885807915
scalar tree_4_3_u08_r12_network.client[28] 	downloads[28] 	11901
scalar tree_4_3_u08_r12_network.client[28] 	avg_time[28] 	0.004659779171
scalar tree_4_3_u08_r12_network.client[29] 	hdistance[29] 	2.8977748034131
scalar tree_4_3_u08_r12_network.client[29] 	downloads[29] 	11954
scalar tree_4_3_u08_r12_network.client[29] 	avg_time[29] 	0.004621969675
scalar tree_4_3_u08_r12_network.client[30] 	hdistance[30] 	3.0271432184102
scalar tree_4_3_u08_r12_network.client[30] 	downloads[30] 	11863
scalar tree_4_3_u08_r12_network.client[30] 	avg_time[30] 	0.004851415239
scalar tree_4_3_u08_r12_network.client[31] 	hdistance[31] 	3.0445151033386
scalar tree_4_3_u08_r12_network.client[31] 	downloads[31] 	11951
scalar tree_4_3_u08_r12_network.client[31] 	avg_time[31] 	0.004906364696
scalar tree_4_3_u08_r12_network.client[32] 	hdistance[32] 	2.9317785708358
scalar tree_4_3_u08_r12_network.client[32] 	downloads[32] 	12049
scalar tree_4_3_u08_r12_network.client[32] 	avg_time[32] 	0.004671753961
scalar tree_4_3_u08_r12_network.client[33] 	hdistance[33] 	2.9682143451489
scalar tree_4_3_u08_r12_network.client[33] 	downloads[33] 	12018
scalar tree_4_3_u08_r12_network.client[33] 	avg_time[33] 	0.004752362681
scalar tree_4_3_u08_r12_network.client[34] 	hdistance[34] 	3.035101010101
scalar tree_4_3_u08_r12_network.client[34] 	downloads[34] 	11880
scalar tree_4_3_u08_r12_network.client[34] 	avg_time[34] 	0.004867597972
scalar tree_4_3_u08_r12_network.client[35] 	hdistance[35] 	3.014724232593
scalar tree_4_3_u08_r12_network.client[35] 	downloads[35] 	12021
scalar tree_4_3_u08_r12_network.client[35] 	avg_time[35] 	0.004835867584
scalar tree_4_3_u08_r12_network.client[36] 	hdistance[36] 	3.0060616265364
scalar tree_4_3_u08_r12_network.client[36] 	downloads[36] 	11878
scalar tree_4_3_u08_r12_network.client[36] 	avg_time[36] 	0.004817280613
scalar tree_4_3_u08_r12_network.client[37] 	hdistance[37] 	2.9930290456431
scalar tree_4_3_u08_r12_network.client[37] 	downloads[37] 	12050
scalar tree_4_3_u08_r12_network.client[37] 	avg_time[37] 	0.004783399469
scalar tree_4_3_u08_r12_network.client[38] 	hdistance[38] 	2.9574781257666
scalar tree_4_3_u08_r12_network.client[38] 	downloads[38] 	12229
scalar tree_4_3_u08_r12_network.client[38] 	avg_time[38] 	0.004703123384
scalar tree_4_3_u08_r12_network.client[39] 	hdistance[39] 	3.068422796554
scalar tree_4_3_u08_r12_network.client[39] 	downloads[39] 	12072
scalar tree_4_3_u08_r12_network.client[39] 	avg_time[39] 	0.004890487378
