version 2
run General-177-20160819-17:49:55-23511
attr a 0.9
attr cd lce
attr configname General
attr cr lru
attr datetime 20160819-17:49:55
attr experiment General
attr fsize 1
attr inifile hw5115/scenario_A/NRR-LCE.ini
attr iterationvars "$name=tree_4_3, $un=08, $rep=18, $cd=lce, $cr=lru, $fsize=1, $a=0.9, $sl=nrr, $ttl=1000, $variance=0.05"
attr iterationvars2 "$name=tree_4_3, $un=08, $rep=18, $cd=lce, $cr=lru, $fsize=1, $a=0.9, $sl=nrr, $ttl=1000, $variance=0.05, $repetition=0"
attr measurement "$name=tree_4_3, $un=08, $rep=18, $cd=lce, $cr=lru, $fsize=1, $a=0.9, $sl=nrr, $ttl=1000, $variance=0.05"
attr name tree_4_3
attr network networks.${name}_u${un}_r${rep}_network
attr processid 23511
attr rep 18
attr repetition 0
attr replication #0
attr resultdir results
attr runnumber 177
attr seedset 18
attr sl nrr
attr ttl 1000
attr un 08
attr variance 0.05

scalar . 	a 	0.9
scalar . 	fsize 	1
scalar . 	rep 	18
scalar . 	ttl 	1000
scalar . 	un 	08
scalar . 	variance 	0.05
scalar tree_4_3_u08_r18_network.content_distribution 	repo-0 	0
scalar tree_4_3_u08_r18_network.content_distribution 	client-0 	13
scalar tree_4_3_u08_r18_network.content_distribution 	client-1 	14
scalar tree_4_3_u08_r18_network.content_distribution 	client-2 	15
scalar tree_4_3_u08_r18_network.content_distribution 	client-3 	16
scalar tree_4_3_u08_r18_network.content_distribution 	client-4 	17
scalar tree_4_3_u08_r18_network.content_distribution 	client-5 	18
scalar tree_4_3_u08_r18_network.content_distribution 	client-6 	19
scalar tree_4_3_u08_r18_network.content_distribution 	client-7 	20
scalar tree_4_3_u08_r18_network.content_distribution 	client-8 	21
scalar tree_4_3_u08_r18_network.content_distribution 	client-9 	22
scalar tree_4_3_u08_r18_network.content_distribution 	client-10 	23
scalar tree_4_3_u08_r18_network.content_distribution 	client-11 	24
scalar tree_4_3_u08_r18_network.content_distribution 	client-12 	25
scalar tree_4_3_u08_r18_network.content_distribution 	client-13 	26
scalar tree_4_3_u08_r18_network.content_distribution 	client-14 	27
scalar tree_4_3_u08_r18_network.content_distribution 	client-15 	28
scalar tree_4_3_u08_r18_network.content_distribution 	client-16 	29
scalar tree_4_3_u08_r18_network.content_distribution 	client-17 	30
scalar tree_4_3_u08_r18_network.content_distribution 	client-18 	31
scalar tree_4_3_u08_r18_network.content_distribution 	client-19 	32
scalar tree_4_3_u08_r18_network.content_distribution 	client-20 	33
scalar tree_4_3_u08_r18_network.content_distribution 	client-21 	34
scalar tree_4_3_u08_r18_network.content_distribution 	client-22 	35
scalar tree_4_3_u08_r18_network.content_distribution 	client-23 	36
scalar tree_4_3_u08_r18_network.content_distribution 	client-24 	37
scalar tree_4_3_u08_r18_network.content_distribution 	client-25 	38
scalar tree_4_3_u08_r18_network.content_distribution 	client-26 	39
scalar tree_4_3_u08_r18_network.content_distribution 	repo-0_card 	100000
scalar tree_4_3_u08_r18_network.content_distribution 	repo-0_price 	0
scalar tree_4_3_u08_r18_network.statistics 	stabilization_time 	550.3
scalar tree_4_3_u08_r18_network.statistics 	p_hit 	0.20454917652685
scalar tree_4_3_u08_r18_network.statistics 	interests 	27484.45
scalar tree_4_3_u08_r18_network.statistics 	data 	19393.525
scalar tree_4_3_u08_r18_network.statistics 	hdistance 	2.9962354112637
scalar tree_4_3_u08_r18_network.statistics 	avg_time 	0.004793818361
scalar tree_4_3_u08_r18_network.statistics 	downloads 	323611
scalar tree_4_3_u08_r18_network.statistics 	total_cost 	0
scalar tree_4_3_u08_r18_network.statistics 	total_replicas 	100000
scalar tree_4_3_u08_r18_network.statistics 	inner_hit 	0.40061369978153
scalar tree_4_3_u08_r18_network.node[0].core_layer 	interests[0] 	194351
scalar tree_4_3_u08_r18_network.node[0].core_layer 	repo_load[0] 	193968
scalar tree_4_3_u08_r18_network.node[0].core_layer 	data[0] 	0
scalar tree_4_3_u08_r18_network.node[0].core_layer 	repo_int[0] 	193968
scalar tree_4_3_u08_r18_network.node[0].content_store 	p_hit[0] 	0.0019706613292445
scalar tree_4_3_u08_r18_network.node[0].content_store 	hits[0] 	383
scalar tree_4_3_u08_r18_network.node[0].content_store 	misses[0] 	193968
scalar tree_4_3_u08_r18_network.node[0].content_store 	decision_yes[0] 	193968
scalar tree_4_3_u08_r18_network.node[0].content_store 	decision_no[0] 	0
scalar tree_4_3_u08_r18_network.node[0].content_store 	decision_ratio[0] 	1
scalar tree_4_3_u08_r18_network.node[1].core_layer 	interests[1] 	144452
scalar tree_4_3_u08_r18_network.node[1].core_layer 	data[1] 	143132
scalar tree_4_3_u08_r18_network.node[1].content_store 	p_hit[1] 	0.0091241381220059
scalar tree_4_3_u08_r18_network.node[1].content_store 	hits[1] 	1318
scalar tree_4_3_u08_r18_network.node[1].content_store 	misses[1] 	143134
scalar tree_4_3_u08_r18_network.node[1].content_store 	decision_yes[1] 	143110
scalar tree_4_3_u08_r18_network.node[1].content_store 	decision_no[1] 	0
scalar tree_4_3_u08_r18_network.node[1].content_store 	decision_ratio[1] 	1
scalar tree_4_3_u08_r18_network.node[2].core_layer 	interests[2] 	69312
scalar tree_4_3_u08_r18_network.node[2].core_layer 	data[2] 	67851
scalar tree_4_3_u08_r18_network.node[2].content_store 	p_hit[2] 	0.021006463527239
scalar tree_4_3_u08_r18_network.node[2].content_store 	hits[2] 	1456
scalar tree_4_3_u08_r18_network.node[2].content_store 	misses[2] 	67856
scalar tree_4_3_u08_r18_network.node[2].content_store 	decision_yes[2] 	67839
scalar tree_4_3_u08_r18_network.node[2].content_store 	decision_no[2] 	0
scalar tree_4_3_u08_r18_network.node[2].content_store 	decision_ratio[2] 	1
scalar tree_4_3_u08_r18_network.node[3].core_layer 	interests[3] 	18788
scalar tree_4_3_u08_r18_network.node[3].core_layer 	data[3] 	14837
scalar tree_4_3_u08_r18_network.node[3].content_store 	p_hit[3] 	0.21018735362998
scalar tree_4_3_u08_r18_network.node[3].content_store 	hits[3] 	3949
scalar tree_4_3_u08_r18_network.node[3].content_store 	misses[3] 	14839
scalar tree_4_3_u08_r18_network.node[3].content_store 	decision_yes[3] 	14837
scalar tree_4_3_u08_r18_network.node[3].content_store 	decision_no[3] 	0
scalar tree_4_3_u08_r18_network.node[3].content_store 	decision_ratio[3] 	1
scalar tree_4_3_u08_r18_network.node[4].core_layer 	interests[4] 	38415
scalar tree_4_3_u08_r18_network.node[4].core_layer 	data[4] 	36825
scalar tree_4_3_u08_r18_network.node[4].content_store 	p_hit[4] 	0.041416113497332
scalar tree_4_3_u08_r18_network.node[4].content_store 	hits[4] 	1591
scalar tree_4_3_u08_r18_network.node[4].content_store 	misses[4] 	36824
scalar tree_4_3_u08_r18_network.node[4].content_store 	decision_yes[4] 	36820
scalar tree_4_3_u08_r18_network.node[4].content_store 	decision_no[4] 	0
scalar tree_4_3_u08_r18_network.node[4].content_store 	decision_ratio[4] 	1
scalar tree_4_3_u08_r18_network.node[5].core_layer 	interests[5] 	36897
scalar tree_4_3_u08_r18_network.node[5].core_layer 	data[5] 	33413
scalar tree_4_3_u08_r18_network.node[5].content_store 	p_hit[5] 	0.094370816055506
scalar tree_4_3_u08_r18_network.node[5].content_store 	hits[5] 	3482
scalar tree_4_3_u08_r18_network.node[5].content_store 	misses[5] 	33415
scalar tree_4_3_u08_r18_network.node[5].content_store 	decision_yes[5] 	33410
scalar tree_4_3_u08_r18_network.node[5].content_store 	decision_no[5] 	0
scalar tree_4_3_u08_r18_network.node[5].content_store 	decision_ratio[5] 	1
scalar tree_4_3_u08_r18_network.node[6].core_layer 	interests[6] 	26480
scalar tree_4_3_u08_r18_network.node[6].core_layer 	data[6] 	22982
scalar tree_4_3_u08_r18_network.node[6].content_store 	p_hit[6] 	0.13202416918429
scalar tree_4_3_u08_r18_network.node[6].content_store 	hits[6] 	3496
scalar tree_4_3_u08_r18_network.node[6].content_store 	misses[6] 	22984
scalar tree_4_3_u08_r18_network.node[6].content_store 	decision_yes[6] 	22982
scalar tree_4_3_u08_r18_network.node[6].content_store 	decision_no[6] 	0
scalar tree_4_3_u08_r18_network.node[6].content_store 	decision_ratio[6] 	1
scalar tree_4_3_u08_r18_network.node[7].core_layer 	interests[7] 	41503
scalar tree_4_3_u08_r18_network.node[7].core_layer 	data[7] 	39215
scalar tree_4_3_u08_r18_network.node[7].content_store 	p_hit[7] 	0.055080355636942
scalar tree_4_3_u08_r18_network.node[7].content_store 	hits[7] 	2286
scalar tree_4_3_u08_r18_network.node[7].content_store 	misses[7] 	39217
scalar tree_4_3_u08_r18_network.node[7].content_store 	decision_yes[7] 	39211
scalar tree_4_3_u08_r18_network.node[7].content_store 	decision_no[7] 	0
scalar tree_4_3_u08_r18_network.node[7].content_store 	decision_ratio[7] 	1
scalar tree_4_3_u08_r18_network.node[8].core_layer 	interests[8] 	30774
scalar tree_4_3_u08_r18_network.node[8].core_layer 	data[8] 	28670
scalar tree_4_3_u08_r18_network.node[8].content_store 	p_hit[8] 	0.068369402742575
scalar tree_4_3_u08_r18_network.node[8].content_store 	hits[8] 	2104
scalar tree_4_3_u08_r18_network.node[8].content_store 	misses[8] 	28670
scalar tree_4_3_u08_r18_network.node[8].content_store 	decision_yes[8] 	28669
scalar tree_4_3_u08_r18_network.node[8].content_store 	decision_no[8] 	0
scalar tree_4_3_u08_r18_network.node[8].content_store 	decision_ratio[8] 	1
scalar tree_4_3_u08_r18_network.node[9].core_layer 	interests[9] 	28101
scalar tree_4_3_u08_r18_network.node[9].core_layer 	data[9] 	24248
scalar tree_4_3_u08_r18_network.node[9].content_store 	p_hit[9] 	0.13700580050532
scalar tree_4_3_u08_r18_network.node[9].content_store 	hits[9] 	3850
scalar tree_4_3_u08_r18_network.node[9].content_store 	misses[9] 	24251
scalar tree_4_3_u08_r18_network.node[9].content_store 	decision_yes[9] 	24243
scalar tree_4_3_u08_r18_network.node[9].content_store 	decision_no[9] 	0
scalar tree_4_3_u08_r18_network.node[9].content_store 	decision_ratio[9] 	1
scalar tree_4_3_u08_r18_network.node[10].core_layer 	interests[10] 	53105
scalar tree_4_3_u08_r18_network.node[10].core_layer 	data[10] 	50334
scalar tree_4_3_u08_r18_network.node[10].content_store 	p_hit[10] 	0.052066660389794
scalar tree_4_3_u08_r18_network.node[10].content_store 	hits[10] 	2765
scalar tree_4_3_u08_r18_network.node[10].content_store 	misses[10] 	50340
scalar tree_4_3_u08_r18_network.node[10].content_store 	decision_yes[10] 	50330
scalar tree_4_3_u08_r18_network.node[10].content_store 	decision_no[10] 	0
scalar tree_4_3_u08_r18_network.node[10].content_store 	decision_ratio[10] 	1
scalar tree_4_3_u08_r18_network.node[11].core_layer 	interests[11] 	34708
scalar tree_4_3_u08_r18_network.node[11].core_layer 	data[11] 	31723
scalar tree_4_3_u08_r18_network.node[11].content_store 	p_hit[11] 	0.085974415120433
scalar tree_4_3_u08_r18_network.node[11].content_store 	hits[11] 	2984
scalar tree_4_3_u08_r18_network.node[11].content_store 	misses[11] 	31724
scalar tree_4_3_u08_r18_network.node[11].content_store 	decision_yes[11] 	31718
scalar tree_4_3_u08_r18_network.node[11].content_store 	decision_no[11] 	0
scalar tree_4_3_u08_r18_network.node[11].content_store 	decision_ratio[11] 	1
scalar tree_4_3_u08_r18_network.node[12].core_layer 	interests[12] 	13258
scalar tree_4_3_u08_r18_network.node[12].core_layer 	data[12] 	10742
scalar tree_4_3_u08_r18_network.node[12].content_store 	p_hit[12] 	0.18977221300347
scalar tree_4_3_u08_r18_network.node[12].content_store 	hits[12] 	2516
scalar tree_4_3_u08_r18_network.node[12].content_store 	misses[12] 	10742
scalar tree_4_3_u08_r18_network.node[12].content_store 	decision_yes[12] 	10742
scalar tree_4_3_u08_r18_network.node[12].content_store 	decision_no[12] 	0
scalar tree_4_3_u08_r18_network.node[12].content_store 	decision_ratio[12] 	1
scalar tree_4_3_u08_r18_network.node[13].core_layer 	interests[13] 	13069
scalar tree_4_3_u08_r18_network.node[13].core_layer 	data[13] 	10223
scalar tree_4_3_u08_r18_network.node[13].content_store 	p_hit[13] 	0.21776723544265
scalar tree_4_3_u08_r18_network.node[13].content_store 	hits[13] 	2846
scalar tree_4_3_u08_r18_network.node[13].content_store 	misses[13] 	10223
scalar tree_4_3_u08_r18_network.node[13].content_store 	decision_yes[13] 	10223
scalar tree_4_3_u08_r18_network.node[13].content_store 	decision_no[13] 	0
scalar tree_4_3_u08_r18_network.node[13].content_store 	decision_ratio[13] 	1
scalar tree_4_3_u08_r18_network.node[14].core_layer 	interests[14] 	14144
scalar tree_4_3_u08_r18_network.node[14].core_layer 	data[14] 	10010
scalar tree_4_3_u08_r18_network.node[14].content_store 	p_hit[14] 	0.29220871040724
scalar tree_4_3_u08_r18_network.node[14].content_store 	hits[14] 	4133
scalar tree_4_3_u08_r18_network.node[14].content_store 	misses[14] 	10011
scalar tree_4_3_u08_r18_network.node[14].content_store 	decision_yes[14] 	10010
scalar tree_4_3_u08_r18_network.node[14].content_store 	decision_no[14] 	0
scalar tree_4_3_u08_r18_network.node[14].content_store 	decision_ratio[14] 	1
scalar tree_4_3_u08_r18_network.node[15].core_layer 	interests[15] 	14279
scalar tree_4_3_u08_r18_network.node[15].core_layer 	data[15] 	9998
scalar tree_4_3_u08_r18_network.node[15].content_store 	p_hit[15] 	0.29974087821276
scalar tree_4_3_u08_r18_network.node[15].content_store 	hits[15] 	4280
scalar tree_4_3_u08_r18_network.node[15].content_store 	misses[15] 	9999
scalar tree_4_3_u08_r18_network.node[15].content_store 	decision_yes[15] 	9998
scalar tree_4_3_u08_r18_network.node[15].content_store 	decision_no[15] 	0
scalar tree_4_3_u08_r18_network.node[15].content_store 	decision_ratio[15] 	1
scalar tree_4_3_u08_r18_network.node[16].core_layer 	interests[16] 	14099
scalar tree_4_3_u08_r18_network.node[16].core_layer 	data[16] 	10029
scalar tree_4_3_u08_r18_network.node[16].content_store 	p_hit[16] 	0.28867295552876
scalar tree_4_3_u08_r18_network.node[16].content_store 	hits[16] 	4070
scalar tree_4_3_u08_r18_network.node[16].content_store 	misses[16] 	10029
scalar tree_4_3_u08_r18_network.node[16].content_store 	decision_yes[16] 	10029
scalar tree_4_3_u08_r18_network.node[16].content_store 	decision_no[16] 	0
scalar tree_4_3_u08_r18_network.node[16].content_store 	decision_ratio[16] 	1
scalar tree_4_3_u08_r18_network.node[17].core_layer 	interests[17] 	13295
scalar tree_4_3_u08_r18_network.node[17].core_layer 	data[17] 	10067
scalar tree_4_3_u08_r18_network.node[17].content_store 	p_hit[17] 	0.24257239563746
scalar tree_4_3_u08_r18_network.node[17].content_store 	hits[17] 	3225
scalar tree_4_3_u08_r18_network.node[17].content_store 	misses[17] 	10070
scalar tree_4_3_u08_r18_network.node[17].content_store 	decision_yes[17] 	10067
scalar tree_4_3_u08_r18_network.node[17].content_store 	decision_no[17] 	0
scalar tree_4_3_u08_r18_network.node[17].content_store 	decision_ratio[17] 	1
scalar tree_4_3_u08_r18_network.node[18].core_layer 	interests[18] 	13413
scalar tree_4_3_u08_r18_network.node[18].core_layer 	data[18] 	10014
scalar tree_4_3_u08_r18_network.node[18].content_store 	p_hit[18] 	0.2533363155148
scalar tree_4_3_u08_r18_network.node[18].content_store 	hits[18] 	3398
scalar tree_4_3_u08_r18_network.node[18].content_store 	misses[18] 	10015
scalar tree_4_3_u08_r18_network.node[18].content_store 	decision_yes[18] 	10014
scalar tree_4_3_u08_r18_network.node[18].content_store 	decision_no[18] 	0
scalar tree_4_3_u08_r18_network.node[18].content_store 	decision_ratio[18] 	1
scalar tree_4_3_u08_r18_network.node[19].core_layer 	interests[19] 	13027
scalar tree_4_3_u08_r18_network.node[19].core_layer 	data[19] 	10201
scalar tree_4_3_u08_r18_network.node[19].content_store 	p_hit[19] 	0.21685729638443
scalar tree_4_3_u08_r18_network.node[19].content_store 	hits[19] 	2825
scalar tree_4_3_u08_r18_network.node[19].content_store 	misses[19] 	10202
scalar tree_4_3_u08_r18_network.node[19].content_store 	decision_yes[19] 	10201
scalar tree_4_3_u08_r18_network.node[19].content_store 	decision_no[19] 	0
scalar tree_4_3_u08_r18_network.node[19].content_store 	decision_ratio[19] 	1
scalar tree_4_3_u08_r18_network.node[20].core_layer 	interests[20] 	14615
scalar tree_4_3_u08_r18_network.node[20].core_layer 	data[20] 	9982
scalar tree_4_3_u08_r18_network.node[20].content_store 	p_hit[20] 	0.3167978104687
scalar tree_4_3_u08_r18_network.node[20].content_store 	hits[20] 	4630
scalar tree_4_3_u08_r18_network.node[20].content_store 	misses[20] 	9985
scalar tree_4_3_u08_r18_network.node[20].content_store 	decision_yes[20] 	9982
scalar tree_4_3_u08_r18_network.node[20].content_store 	decision_no[20] 	0
scalar tree_4_3_u08_r18_network.node[20].content_store 	decision_ratio[20] 	1
scalar tree_4_3_u08_r18_network.node[21].core_layer 	interests[21] 	12951
scalar tree_4_3_u08_r18_network.node[21].core_layer 	data[21] 	10079
scalar tree_4_3_u08_r18_network.node[21].content_store 	p_hit[21] 	0.22168172341904
scalar tree_4_3_u08_r18_network.node[21].content_store 	hits[21] 	2871
scalar tree_4_3_u08_r18_network.node[21].content_store 	misses[21] 	10080
scalar tree_4_3_u08_r18_network.node[21].content_store 	decision_yes[21] 	10079
scalar tree_4_3_u08_r18_network.node[21].content_store 	decision_no[21] 	0
scalar tree_4_3_u08_r18_network.node[21].content_store 	decision_ratio[21] 	1
scalar tree_4_3_u08_r18_network.node[22].core_layer 	interests[22] 	13363
scalar tree_4_3_u08_r18_network.node[22].core_layer 	data[22] 	10097
scalar tree_4_3_u08_r18_network.node[22].content_store 	p_hit[22] 	0.24433136271795
scalar tree_4_3_u08_r18_network.node[22].content_store 	hits[22] 	3265
scalar tree_4_3_u08_r18_network.node[22].content_store 	misses[22] 	10098
scalar tree_4_3_u08_r18_network.node[22].content_store 	decision_yes[22] 	10097
scalar tree_4_3_u08_r18_network.node[22].content_store 	decision_no[22] 	0
scalar tree_4_3_u08_r18_network.node[22].content_store 	decision_ratio[22] 	1
scalar tree_4_3_u08_r18_network.node[23].core_layer 	interests[23] 	14031
scalar tree_4_3_u08_r18_network.node[23].core_layer 	data[23] 	9882
scalar tree_4_3_u08_r18_network.node[23].content_store 	p_hit[23] 	0.29555983180101
scalar tree_4_3_u08_r18_network.node[23].content_store 	hits[23] 	4147
scalar tree_4_3_u08_r18_network.node[23].content_store 	misses[23] 	9884
scalar tree_4_3_u08_r18_network.node[23].content_store 	decision_yes[23] 	9882
scalar tree_4_3_u08_r18_network.node[23].content_store 	decision_no[23] 	0
scalar tree_4_3_u08_r18_network.node[23].content_store 	decision_ratio[23] 	1
scalar tree_4_3_u08_r18_network.node[24].core_layer 	interests[24] 	14416
scalar tree_4_3_u08_r18_network.node[24].core_layer 	data[24] 	10008
scalar tree_4_3_u08_r18_network.node[24].content_store 	p_hit[24] 	0.30577136514983
scalar tree_4_3_u08_r18_network.node[24].content_store 	hits[24] 	4408
scalar tree_4_3_u08_r18_network.node[24].content_store 	misses[24] 	10008
scalar tree_4_3_u08_r18_network.node[24].content_store 	decision_yes[24] 	10008
scalar tree_4_3_u08_r18_network.node[24].content_store 	decision_no[24] 	0
scalar tree_4_3_u08_r18_network.node[24].content_store 	decision_ratio[24] 	1
scalar tree_4_3_u08_r18_network.node[25].core_layer 	interests[25] 	13979
scalar tree_4_3_u08_r18_network.node[25].core_layer 	data[25] 	9971
scalar tree_4_3_u08_r18_network.node[25].content_store 	p_hit[25] 	0.28657271621718
scalar tree_4_3_u08_r18_network.node[25].content_store 	hits[25] 	4006
scalar tree_4_3_u08_r18_network.node[25].content_store 	misses[25] 	9973
scalar tree_4_3_u08_r18_network.node[25].content_store 	decision_yes[25] 	9971
scalar tree_4_3_u08_r18_network.node[25].content_store 	decision_no[25] 	0
scalar tree_4_3_u08_r18_network.node[25].content_store 	decision_ratio[25] 	1
scalar tree_4_3_u08_r18_network.node[26].core_layer 	interests[26] 	13156
scalar tree_4_3_u08_r18_network.node[26].core_layer 	data[26] 	10258
scalar tree_4_3_u08_r18_network.node[26].content_store 	p_hit[26] 	0.22020370933414
scalar tree_4_3_u08_r18_network.node[26].content_store 	hits[26] 	2897
scalar tree_4_3_u08_r18_network.node[26].content_store 	misses[26] 	10259
scalar tree_4_3_u08_r18_network.node[26].content_store 	decision_yes[26] 	10258
scalar tree_4_3_u08_r18_network.node[26].content_store 	decision_no[26] 	0
scalar tree_4_3_u08_r18_network.node[26].content_store 	decision_ratio[26] 	1
scalar tree_4_3_u08_r18_network.node[27].core_layer 	interests[27] 	14144
scalar tree_4_3_u08_r18_network.node[27].core_layer 	data[27] 	9977
scalar tree_4_3_u08_r18_network.node[27].content_store 	p_hit[27] 	0.29461255656109
scalar tree_4_3_u08_r18_network.node[27].content_store 	hits[27] 	4167
scalar tree_4_3_u08_r18_network.node[27].content_store 	misses[27] 	9977
scalar tree_4_3_u08_r18_network.node[27].content_store 	decision_yes[27] 	9977
scalar tree_4_3_u08_r18_network.node[27].content_store 	decision_no[27] 	0
scalar tree_4_3_u08_r18_network.node[27].content_store 	decision_ratio[27] 	1
scalar tree_4_3_u08_r18_network.node[28].core_layer 	interests[28] 	13117
scalar tree_4_3_u08_r18_network.node[28].core_layer 	data[28] 	10092
scalar tree_4_3_u08_r18_network.node[28].content_store 	p_hit[28] 	0.23054051993596
scalar tree_4_3_u08_r18_network.node[28].content_store 	hits[28] 	3024
scalar tree_4_3_u08_r18_network.node[28].content_store 	misses[28] 	10093
scalar tree_4_3_u08_r18_network.node[28].content_store 	decision_yes[28] 	10092
scalar tree_4_3_u08_r18_network.node[28].content_store 	decision_no[28] 	0
scalar tree_4_3_u08_r18_network.node[28].content_store 	decision_ratio[28] 	1
scalar tree_4_3_u08_r18_network.node[29].core_layer 	interests[29] 	13910
scalar tree_4_3_u08_r18_network.node[29].core_layer 	data[29] 	9815
scalar tree_4_3_u08_r18_network.node[29].content_store 	p_hit[29] 	0.29439252336449
scalar tree_4_3_u08_r18_network.node[29].content_store 	hits[29] 	4095
scalar tree_4_3_u08_r18_network.node[29].content_store 	misses[29] 	9815
scalar tree_4_3_u08_r18_network.node[29].content_store 	decision_yes[29] 	9815
scalar tree_4_3_u08_r18_network.node[29].content_store 	decision_no[29] 	0
scalar tree_4_3_u08_r18_network.node[29].content_store 	decision_ratio[29] 	1
scalar tree_4_3_u08_r18_network.node[30].core_layer 	interests[30] 	12935
scalar tree_4_3_u08_r18_network.node[30].core_layer 	data[30] 	9956
scalar tree_4_3_u08_r18_network.node[30].content_store 	p_hit[30] 	0.23030537301894
scalar tree_4_3_u08_r18_network.node[30].content_store 	hits[30] 	2979
scalar tree_4_3_u08_r18_network.node[30].content_store 	misses[30] 	9956
scalar tree_4_3_u08_r18_network.node[30].content_store 	decision_yes[30] 	9956
scalar tree_4_3_u08_r18_network.node[30].content_store 	decision_no[30] 	0
scalar tree_4_3_u08_r18_network.node[30].content_store 	decision_ratio[30] 	1
scalar tree_4_3_u08_r18_network.node[31].core_layer 	interests[31] 	13492
scalar tree_4_3_u08_r18_network.node[31].core_layer 	data[31] 	10134
scalar tree_4_3_u08_r18_network.node[31].content_store 	p_hit[31] 	0.24888823006226
scalar tree_4_3_u08_r18_network.node[31].content_store 	hits[31] 	3358
scalar tree_4_3_u08_r18_network.node[31].content_store 	misses[31] 	10134
scalar tree_4_3_u08_r18_network.node[31].content_store 	decision_yes[31] 	10134
scalar tree_4_3_u08_r18_network.node[31].content_store 	decision_no[31] 	0
scalar tree_4_3_u08_r18_network.node[31].content_store 	decision_ratio[31] 	1
scalar tree_4_3_u08_r18_network.node[32].core_layer 	interests[32] 	14454
scalar tree_4_3_u08_r18_network.node[32].core_layer 	data[32] 	10123
scalar tree_4_3_u08_r18_network.node[32].content_store 	p_hit[32] 	0.2996402379964
scalar tree_4_3_u08_r18_network.node[32].content_store 	hits[32] 	4331
scalar tree_4_3_u08_r18_network.node[32].content_store 	misses[32] 	10123
scalar tree_4_3_u08_r18_network.node[32].content_store 	decision_yes[32] 	10123
scalar tree_4_3_u08_r18_network.node[32].content_store 	decision_no[32] 	0
scalar tree_4_3_u08_r18_network.node[32].content_store 	decision_ratio[32] 	1
scalar tree_4_3_u08_r18_network.node[33].core_layer 	interests[33] 	13532
scalar tree_4_3_u08_r18_network.node[33].core_layer 	data[33] 	10149
scalar tree_4_3_u08_r18_network.node[33].content_store 	p_hit[33] 	0.2499261010937
scalar tree_4_3_u08_r18_network.node[33].content_store 	hits[33] 	3382
scalar tree_4_3_u08_r18_network.node[33].content_store 	misses[33] 	10150
scalar tree_4_3_u08_r18_network.node[33].content_store 	decision_yes[33] 	10149
scalar tree_4_3_u08_r18_network.node[33].content_store 	decision_no[33] 	0
scalar tree_4_3_u08_r18_network.node[33].content_store 	decision_ratio[33] 	1
scalar tree_4_3_u08_r18_network.node[34].core_layer 	interests[34] 	14460
scalar tree_4_3_u08_r18_network.node[34].core_layer 	data[34] 	10187
scalar tree_4_3_u08_r18_network.node[34].content_store 	p_hit[34] 	0.29550484094053
scalar tree_4_3_u08_r18_network.node[34].content_store 	hits[34] 	4273
scalar tree_4_3_u08_r18_network.node[34].content_store 	misses[34] 	10187
scalar tree_4_3_u08_r18_network.node[34].content_store 	decision_yes[34] 	10187
scalar tree_4_3_u08_r18_network.node[34].content_store 	decision_no[34] 	0
scalar tree_4_3_u08_r18_network.node[34].content_store 	decision_ratio[34] 	1
scalar tree_4_3_u08_r18_network.node[35].core_layer 	interests[35] 	13131
scalar tree_4_3_u08_r18_network.node[35].core_layer 	data[35] 	10005
scalar tree_4_3_u08_r18_network.node[35].content_store 	p_hit[35] 	0.23806259995431
scalar tree_4_3_u08_r18_network.node[35].content_store 	hits[35] 	3126
scalar tree_4_3_u08_r18_network.node[35].content_store 	misses[35] 	10005
scalar tree_4_3_u08_r18_network.node[35].content_store 	decision_yes[35] 	10005
scalar tree_4_3_u08_r18_network.node[35].content_store 	decision_no[35] 	0
scalar tree_4_3_u08_r18_network.node[35].content_store 	decision_ratio[35] 	1
scalar tree_4_3_u08_r18_network.node[36].core_layer 	interests[36] 	13911
scalar tree_4_3_u08_r18_network.node[36].core_layer 	data[36] 	10205
scalar tree_4_3_u08_r18_network.node[36].content_store 	p_hit[36] 	0.26633599309899
scalar tree_4_3_u08_r18_network.node[36].content_store 	hits[36] 	3705
scalar tree_4_3_u08_r18_network.node[36].content_store 	misses[36] 	10206
scalar tree_4_3_u08_r18_network.node[36].content_store 	decision_yes[36] 	10205
scalar tree_4_3_u08_r18_network.node[36].content_store 	decision_no[36] 	0
scalar tree_4_3_u08_r18_network.node[36].content_store 	decision_ratio[36] 	1
scalar tree_4_3_u08_r18_network.node[37].core_layer 	interests[37] 	14336
scalar tree_4_3_u08_r18_network.node[37].core_layer 	data[37] 	10099
scalar tree_4_3_u08_r18_network.node[37].content_store 	p_hit[37] 	0.29554966517857
scalar tree_4_3_u08_r18_network.node[37].content_store 	hits[37] 	4237
scalar tree_4_3_u08_r18_network.node[37].content_store 	misses[37] 	10099
scalar tree_4_3_u08_r18_network.node[37].content_store 	decision_yes[37] 	10099
scalar tree_4_3_u08_r18_network.node[37].content_store 	decision_no[37] 	0
scalar tree_4_3_u08_r18_network.node[37].content_store 	decision_ratio[37] 	1
scalar tree_4_3_u08_r18_network.node[38].core_layer 	interests[38] 	13815
scalar tree_4_3_u08_r18_network.node[38].core_layer 	data[38] 	10117
scalar tree_4_3_u08_r18_network.node[38].content_store 	p_hit[38] 	0.26753528773073
scalar tree_4_3_u08_r18_network.node[38].content_store 	hits[38] 	3696
scalar tree_4_3_u08_r18_network.node[38].content_store 	misses[38] 	10119
scalar tree_4_3_u08_r18_network.node[38].content_store 	decision_yes[38] 	10117
scalar tree_4_3_u08_r18_network.node[38].content_store 	decision_no[38] 	0
scalar tree_4_3_u08_r18_network.node[38].content_store 	decision_ratio[38] 	1
scalar tree_4_3_u08_r18_network.node[39].core_layer 	interests[39] 	12160
scalar tree_4_3_u08_r18_network.node[39].core_layer 	data[39] 	10091
scalar tree_4_3_u08_r18_network.node[39].content_store 	p_hit[39] 	0.17023026315789
scalar tree_4_3_u08_r18_network.node[39].content_store 	hits[39] 	2070
scalar tree_4_3_u08_r18_network.node[39].content_store 	misses[39] 	10090
scalar tree_4_3_u08_r18_network.node[39].content_store 	decision_yes[39] 	10091
scalar tree_4_3_u08_r18_network.node[39].content_store 	decision_no[39] 	0
scalar tree_4_3_u08_r18_network.node[39].content_store 	decision_ratio[39] 	1
scalar tree_4_3_u08_r18_network.client[13] 	hdistance[13] 	3.110274652548
scalar tree_4_3_u08_r18_network.client[13] 	downloads[13] 	12088
scalar tree_4_3_u08_r18_network.client[13] 	avg_time[13] 	0.004964219222
scalar tree_4_3_u08_r18_network.client[14] 	hdistance[14] 	2.9874989512543
scalar tree_4_3_u08_r18_network.client[14] 	downloads[14] 	11919
scalar tree_4_3_u08_r18_network.client[14] 	avg_time[14] 	0.004764322891
scalar tree_4_3_u08_r18_network.client[15] 	hdistance[15] 	2.9507118474731
scalar tree_4_3_u08_r18_network.client[15] 	downloads[15] 	12011
scalar tree_4_3_u08_r18_network.client[15] 	avg_time[15] 	0.004707311363
scalar tree_4_3_u08_r18_network.client[16] 	hdistance[16] 	3.0122673434856
scalar tree_4_3_u08_r18_network.client[16] 	downloads[16] 	11820
scalar tree_4_3_u08_r18_network.client[16] 	avg_time[16] 	0.004815563873
scalar tree_4_3_u08_r18_network.client[17] 	hdistance[17] 	3.0514674964259
scalar tree_4_3_u08_r18_network.client[17] 	downloads[17] 	11891
scalar tree_4_3_u08_r18_network.client[17] 	avg_time[17] 	0.004892520584
scalar tree_4_3_u08_r18_network.client[18] 	hdistance[18] 	3.0132798797294
scalar tree_4_3_u08_r18_network.client[18] 	downloads[18] 	11973
scalar tree_4_3_u08_r18_network.client[18] 	avg_time[18] 	0.004843429675
scalar tree_4_3_u08_r18_network.client[19] 	hdistance[19] 	3.042870148142
scalar tree_4_3_u08_r18_network.client[19] 	downloads[19] 	12083
scalar tree_4_3_u08_r18_network.client[19] 	avg_time[19] 	0.004894532453
scalar tree_4_3_u08_r18_network.client[20] 	hdistance[20] 	2.8940960640427
scalar tree_4_3_u08_r18_network.client[20] 	downloads[20] 	11992
scalar tree_4_3_u08_r18_network.client[20] 	avg_time[20] 	0.004623646869
scalar tree_4_3_u08_r18_network.client[21] 	hdistance[21] 	3.0498663548279
scalar tree_4_3_u08_r18_network.client[21] 	downloads[21] 	11972
scalar tree_4_3_u08_r18_network.client[21] 	avg_time[21] 	0.004898647556
scalar tree_4_3_u08_r18_network.client[22] 	hdistance[22] 	3.0688937020993
scalar tree_4_3_u08_r18_network.client[22] 	downloads[22] 	12004
scalar tree_4_3_u08_r18_network.client[22] 	avg_time[22] 	0.004934993517
scalar tree_4_3_u08_r18_network.client[23] 	hdistance[23] 	2.9510718789407
scalar tree_4_3_u08_r18_network.client[23] 	downloads[23] 	11895
scalar tree_4_3_u08_r18_network.client[23] 	avg_time[23] 	0.004723580477
scalar tree_4_3_u08_r18_network.client[24] 	hdistance[24] 	2.9171592706685
scalar tree_4_3_u08_r18_network.client[24] 	downloads[24] 	12011
scalar tree_4_3_u08_r18_network.client[24] 	avg_time[24] 	0.004651899429
scalar tree_4_3_u08_r18_network.client[25] 	hdistance[25] 	2.969201074186
scalar tree_4_3_u08_r18_network.client[25] 	downloads[25] 	11916
scalar tree_4_3_u08_r18_network.client[25] 	avg_time[25] 	0.004741925999
scalar tree_4_3_u08_r18_network.client[26] 	hdistance[26] 	3.0669518012831
scalar tree_4_3_u08_r18_network.client[26] 	downloads[26] 	12158
scalar tree_4_3_u08_r18_network.client[26] 	avg_time[26] 	0.004893267119
scalar tree_4_3_u08_r18_network.client[27] 	hdistance[27] 	2.9278806069702
scalar tree_4_3_u08_r18_network.client[27] 	downloads[27] 	11994
scalar tree_4_3_u08_r18_network.client[27] 	avg_time[27] 	0.004668497912
scalar tree_4_3_u08_r18_network.client[28] 	hdistance[28] 	3.0109935870742
scalar tree_4_3_u08_r18_network.client[28] 	downloads[28] 	12007
scalar tree_4_3_u08_r18_network.client[28] 	avg_time[28] 	0.004834621566
scalar tree_4_3_u08_r18_network.client[29] 	hdistance[29] 	2.9515094500983
scalar tree_4_3_u08_r18_network.client[29] 	downloads[29] 	11693
scalar tree_4_3_u08_r18_network.client[29] 	avg_time[29] 	0.004714954755
scalar tree_4_3_u08_r18_network.client[30] 	hdistance[30] 	3.008358662614
scalar tree_4_3_u08_r18_network.client[30] 	downloads[30] 	11844
scalar tree_4_3_u08_r18_network.client[30] 	avg_time[30] 	0.004831472866
scalar tree_4_3_u08_r18_network.client[31] 	hdistance[31] 	3.0294215702617
scalar tree_4_3_u08_r18_network.client[31] 	downloads[31] 	11998
scalar tree_4_3_u08_r18_network.client[31] 	avg_time[31] 	0.004870808802
scalar tree_4_3_u08_r18_network.client[32] 	hdistance[32] 	2.9472023908351
scalar tree_4_3_u08_r18_network.client[32] 	downloads[32] 	12046
scalar tree_4_3_u08_r18_network.client[32] 	avg_time[32] 	0.004705655587
scalar tree_4_3_u08_r18_network.client[33] 	hdistance[33] 	3.0328903654485
scalar tree_4_3_u08_r18_network.client[33] 	downloads[33] 	12040
scalar tree_4_3_u08_r18_network.client[33] 	avg_time[33] 	0.00486880962
scalar tree_4_3_u08_r18_network.client[34] 	hdistance[34] 	2.9427817627175
scalar tree_4_3_u08_r18_network.client[34] 	downloads[34] 	12129
scalar tree_4_3_u08_r18_network.client[34] 	avg_time[34] 	0.004694978519
scalar tree_4_3_u08_r18_network.client[35] 	hdistance[35] 	3.0118021260567
scalar tree_4_3_u08_r18_network.client[35] 	downloads[35] 	11947
scalar tree_4_3_u08_r18_network.client[35] 	avg_time[35] 	0.00483754099
scalar tree_4_3_u08_r18_network.client[36] 	hdistance[36] 	2.9432612449634
scalar tree_4_3_u08_r18_network.client[36] 	downloads[36] 	12161
scalar tree_4_3_u08_r18_network.client[36] 	avg_time[36] 	0.004694388974
scalar tree_4_3_u08_r18_network.client[37] 	hdistance[37] 	2.9483116236622
scalar tree_4_3_u08_r18_network.client[37] 	downloads[37] 	12053
scalar tree_4_3_u08_r18_network.client[37] 	avg_time[37] 	0.004700558358
scalar tree_4_3_u08_r18_network.client[38] 	hdistance[38] 	2.9775224775225
scalar tree_4_3_u08_r18_network.client[38] 	downloads[38] 	12012
scalar tree_4_3_u08_r18_network.client[38] 	avg_time[38] 	0.004747280706
scalar tree_4_3_u08_r18_network.client[39] 	hdistance[39] 	3.080809770788
scalar tree_4_3_u08_r18_network.client[39] 	downloads[39] 	11954
scalar tree_4_3_u08_r18_network.client[39] 	avg_time[39] 	0.004913666084
