version 2
run General-178-20160819-17:51:03-23511
attr a 0.9
attr cd lce
attr configname General
attr cr lru
attr datetime 20160819-17:51:03
attr experiment General
attr fsize 1
attr inifile hw5115/scenario_A/NRR-LCE.ini
attr iterationvars "$name=tree_4_3, $un=08, $rep=19, $cd=lce, $cr=lru, $fsize=1, $a=0.9, $sl=nrr, $ttl=1000, $variance=0.05"
attr iterationvars2 "$name=tree_4_3, $un=08, $rep=19, $cd=lce, $cr=lru, $fsize=1, $a=0.9, $sl=nrr, $ttl=1000, $variance=0.05, $repetition=0"
attr measurement "$name=tree_4_3, $un=08, $rep=19, $cd=lce, $cr=lru, $fsize=1, $a=0.9, $sl=nrr, $ttl=1000, $variance=0.05"
attr name tree_4_3
attr network networks.${name}_u${un}_r${rep}_network
attr processid 23511
attr rep 19
attr repetition 0
attr replication #0
attr resultdir results
attr runnumber 178
attr seedset 19
attr sl nrr
attr ttl 1000
attr un 08
attr variance 0.05

scalar . 	a 	0.9
scalar . 	fsize 	1
scalar . 	rep 	19
scalar . 	ttl 	1000
scalar . 	un 	08
scalar . 	variance 	0.05
scalar tree_4_3_u08_r19_network.content_distribution 	repo-0 	0
scalar tree_4_3_u08_r19_network.content_distribution 	client-0 	13
scalar tree_4_3_u08_r19_network.content_distribution 	client-1 	14
scalar tree_4_3_u08_r19_network.content_distribution 	client-2 	15
scalar tree_4_3_u08_r19_network.content_distribution 	client-3 	16
scalar tree_4_3_u08_r19_network.content_distribution 	client-4 	17
scalar tree_4_3_u08_r19_network.content_distribution 	client-5 	18
scalar tree_4_3_u08_r19_network.content_distribution 	client-6 	19
scalar tree_4_3_u08_r19_network.content_distribution 	client-7 	20
scalar tree_4_3_u08_r19_network.content_distribution 	client-8 	21
scalar tree_4_3_u08_r19_network.content_distribution 	client-9 	22
scalar tree_4_3_u08_r19_network.content_distribution 	client-10 	23
scalar tree_4_3_u08_r19_network.content_distribution 	client-11 	24
scalar tree_4_3_u08_r19_network.content_distribution 	client-12 	25
scalar tree_4_3_u08_r19_network.content_distribution 	client-13 	26
scalar tree_4_3_u08_r19_network.content_distribution 	client-14 	27
scalar tree_4_3_u08_r19_network.content_distribution 	client-15 	28
scalar tree_4_3_u08_r19_network.content_distribution 	client-16 	29
scalar tree_4_3_u08_r19_network.content_distribution 	client-17 	30
scalar tree_4_3_u08_r19_network.content_distribution 	client-18 	31
scalar tree_4_3_u08_r19_network.content_distribution 	client-19 	32
scalar tree_4_3_u08_r19_network.content_distribution 	client-20 	33
scalar tree_4_3_u08_r19_network.content_distribution 	client-21 	34
scalar tree_4_3_u08_r19_network.content_distribution 	client-22 	35
scalar tree_4_3_u08_r19_network.content_distribution 	client-23 	36
scalar tree_4_3_u08_r19_network.content_distribution 	client-24 	37
scalar tree_4_3_u08_r19_network.content_distribution 	client-25 	38
scalar tree_4_3_u08_r19_network.content_distribution 	client-26 	39
scalar tree_4_3_u08_r19_network.content_distribution 	repo-0_card 	100000
scalar tree_4_3_u08_r19_network.content_distribution 	repo-0_price 	0
scalar tree_4_3_u08_r19_network.statistics 	stabilization_time 	413.5
scalar tree_4_3_u08_r19_network.statistics 	p_hit 	0.20128170930511
scalar tree_4_3_u08_r19_network.statistics 	interests 	27312.075
scalar tree_4_3_u08_r19_network.statistics 	data 	19245.3
scalar tree_4_3_u08_r19_network.statistics 	hdistance 	2.9952243976863
scalar tree_4_3_u08_r19_network.statistics 	avg_time 	0.004771492885
scalar tree_4_3_u08_r19_network.statistics 	downloads 	322655
scalar tree_4_3_u08_r19_network.statistics 	total_cost 	0
scalar tree_4_3_u08_r19_network.statistics 	total_replicas 	100000
scalar tree_4_3_u08_r19_network.statistics 	inner_hit 	0.39060606530195
scalar tree_4_3_u08_r19_network.node[0].core_layer 	interests[0] 	197285
scalar tree_4_3_u08_r19_network.node[0].core_layer 	repo_load[0] 	196624
scalar tree_4_3_u08_r19_network.node[0].core_layer 	data[0] 	0
scalar tree_4_3_u08_r19_network.node[0].core_layer 	repo_int[0] 	196624
scalar tree_4_3_u08_r19_network.node[0].content_store 	p_hit[0] 	0.0033504828040652
scalar tree_4_3_u08_r19_network.node[0].content_store 	hits[0] 	661
scalar tree_4_3_u08_r19_network.node[0].content_store 	misses[0] 	196624
scalar tree_4_3_u08_r19_network.node[0].content_store 	decision_yes[0] 	196624
scalar tree_4_3_u08_r19_network.node[0].content_store 	decision_no[0] 	0
scalar tree_4_3_u08_r19_network.node[0].content_store 	decision_ratio[0] 	1
scalar tree_4_3_u08_r19_network.node[1].core_layer 	interests[1] 	67413
scalar tree_4_3_u08_r19_network.node[1].core_layer 	data[1] 	67179
scalar tree_4_3_u08_r19_network.node[1].content_store 	p_hit[1] 	0.0034563066470859
scalar tree_4_3_u08_r19_network.node[1].content_store 	hits[1] 	233
scalar tree_4_3_u08_r19_network.node[1].content_store 	misses[1] 	67180
scalar tree_4_3_u08_r19_network.node[1].content_store 	decision_yes[1] 	67178
scalar tree_4_3_u08_r19_network.node[1].content_store 	decision_no[1] 	0
scalar tree_4_3_u08_r19_network.node[1].content_store 	decision_ratio[1] 	1
scalar tree_4_3_u08_r19_network.node[2].core_layer 	interests[2] 	117749
scalar tree_4_3_u08_r19_network.node[2].core_layer 	data[2] 	116380
scalar tree_4_3_u08_r19_network.node[2].content_store 	p_hit[2] 	0.01157546985537
scalar tree_4_3_u08_r19_network.node[2].content_store 	hits[2] 	1363
scalar tree_4_3_u08_r19_network.node[2].content_store 	misses[2] 	116386
scalar tree_4_3_u08_r19_network.node[2].content_store 	decision_yes[2] 	116363
scalar tree_4_3_u08_r19_network.node[2].content_store 	decision_no[2] 	0
scalar tree_4_3_u08_r19_network.node[2].content_store 	decision_ratio[2] 	1
scalar tree_4_3_u08_r19_network.node[3].core_layer 	interests[3] 	43771
scalar tree_4_3_u08_r19_network.node[3].core_layer 	data[3] 	41437
scalar tree_4_3_u08_r19_network.node[3].content_store 	p_hit[3] 	0.053254437869822
scalar tree_4_3_u08_r19_network.node[3].content_store 	hits[3] 	2331
scalar tree_4_3_u08_r19_network.node[3].content_store 	misses[3] 	41440
scalar tree_4_3_u08_r19_network.node[3].content_store 	decision_yes[3] 	41432
scalar tree_4_3_u08_r19_network.node[3].content_store 	decision_no[3] 	0
scalar tree_4_3_u08_r19_network.node[3].content_store 	decision_ratio[3] 	1
scalar tree_4_3_u08_r19_network.node[4].core_layer 	interests[4] 	43054
scalar tree_4_3_u08_r19_network.node[4].core_layer 	data[4] 	42091
scalar tree_4_3_u08_r19_network.node[4].content_store 	p_hit[4] 	0.022320806429136
scalar tree_4_3_u08_r19_network.node[4].content_store 	hits[4] 	961
scalar tree_4_3_u08_r19_network.node[4].content_store 	misses[4] 	42093
scalar tree_4_3_u08_r19_network.node[4].content_store 	decision_yes[4] 	42090
scalar tree_4_3_u08_r19_network.node[4].content_store 	decision_no[4] 	0
scalar tree_4_3_u08_r19_network.node[4].content_store 	decision_ratio[4] 	1
scalar tree_4_3_u08_r19_network.node[5].core_layer 	interests[5] 	35821
scalar tree_4_3_u08_r19_network.node[5].core_layer 	data[5] 	32828
scalar tree_4_3_u08_r19_network.node[5].content_store 	p_hit[5] 	0.083498506462689
scalar tree_4_3_u08_r19_network.node[5].content_store 	hits[5] 	2991
scalar tree_4_3_u08_r19_network.node[5].content_store 	misses[5] 	32830
scalar tree_4_3_u08_r19_network.node[5].content_store 	decision_yes[5] 	32827
scalar tree_4_3_u08_r19_network.node[5].content_store 	decision_no[5] 	0
scalar tree_4_3_u08_r19_network.node[5].content_store 	decision_ratio[5] 	1
scalar tree_4_3_u08_r19_network.node[6].core_layer 	interests[6] 	20675
scalar tree_4_3_u08_r19_network.node[6].core_layer 	data[6] 	16025
scalar tree_4_3_u08_r19_network.node[6].content_store 	p_hit[6] 	0.22486094316808
scalar tree_4_3_u08_r19_network.node[6].content_store 	hits[6] 	4649
scalar tree_4_3_u08_r19_network.node[6].content_store 	misses[6] 	16026
scalar tree_4_3_u08_r19_network.node[6].content_store 	decision_yes[6] 	16023
scalar tree_4_3_u08_r19_network.node[6].content_store 	decision_no[6] 	0
scalar tree_4_3_u08_r19_network.node[6].content_store 	decision_ratio[6] 	1
scalar tree_4_3_u08_r19_network.node[7].core_layer 	interests[7] 	48216
scalar tree_4_3_u08_r19_network.node[7].core_layer 	data[7] 	46499
scalar tree_4_3_u08_r19_network.node[7].content_store 	p_hit[7] 	0.035548365687739
scalar tree_4_3_u08_r19_network.node[7].content_store 	hits[7] 	1714
scalar tree_4_3_u08_r19_network.node[7].content_store 	misses[7] 	46502
scalar tree_4_3_u08_r19_network.node[7].content_store 	decision_yes[7] 	46496
scalar tree_4_3_u08_r19_network.node[7].content_store 	decision_no[7] 	0
scalar tree_4_3_u08_r19_network.node[7].content_store 	decision_ratio[7] 	1
scalar tree_4_3_u08_r19_network.node[8].core_layer 	interests[8] 	30846
scalar tree_4_3_u08_r19_network.node[8].core_layer 	data[8] 	28750
scalar tree_4_3_u08_r19_network.node[8].content_store 	p_hit[8] 	0.067918044479025
scalar tree_4_3_u08_r19_network.node[8].content_store 	hits[8] 	2095
scalar tree_4_3_u08_r19_network.node[8].content_store 	misses[8] 	28751
scalar tree_4_3_u08_r19_network.node[8].content_store 	decision_yes[8] 	28746
scalar tree_4_3_u08_r19_network.node[8].content_store 	decision_no[8] 	0
scalar tree_4_3_u08_r19_network.node[8].content_store 	decision_ratio[8] 	1
scalar tree_4_3_u08_r19_network.node[9].core_layer 	interests[9] 	20671
scalar tree_4_3_u08_r19_network.node[9].core_layer 	data[9] 	15513
scalar tree_4_3_u08_r19_network.node[9].content_store 	p_hit[9] 	0.24938319384645
scalar tree_4_3_u08_r19_network.node[9].content_store 	hits[9] 	5155
scalar tree_4_3_u08_r19_network.node[9].content_store 	misses[9] 	15516
scalar tree_4_3_u08_r19_network.node[9].content_store 	decision_yes[9] 	15513
scalar tree_4_3_u08_r19_network.node[9].content_store 	decision_no[9] 	0
scalar tree_4_3_u08_r19_network.node[9].content_store 	decision_ratio[9] 	1
scalar tree_4_3_u08_r19_network.node[10].core_layer 	interests[10] 	21718
scalar tree_4_3_u08_r19_network.node[10].core_layer 	data[10] 	20345
scalar tree_4_3_u08_r19_network.node[10].content_store 	p_hit[10] 	0.063081315038217
scalar tree_4_3_u08_r19_network.node[10].content_store 	hits[10] 	1370
scalar tree_4_3_u08_r19_network.node[10].content_store 	misses[10] 	20348
scalar tree_4_3_u08_r19_network.node[10].content_store 	decision_yes[10] 	20343
scalar tree_4_3_u08_r19_network.node[10].content_store 	decision_no[10] 	0
scalar tree_4_3_u08_r19_network.node[10].content_store 	decision_ratio[10] 	1
scalar tree_4_3_u08_r19_network.node[11].core_layer 	interests[11] 	53140
scalar tree_4_3_u08_r19_network.node[11].core_layer 	data[11] 	50295
scalar tree_4_3_u08_r19_network.node[11].content_store 	p_hit[11] 	0.05350018818216
scalar tree_4_3_u08_r19_network.node[11].content_store 	hits[11] 	2843
scalar tree_4_3_u08_r19_network.node[11].content_store 	misses[11] 	50297
scalar tree_4_3_u08_r19_network.node[11].content_store 	decision_yes[11] 	50289
scalar tree_4_3_u08_r19_network.node[11].content_store 	decision_no[11] 	0
scalar tree_4_3_u08_r19_network.node[11].content_store 	decision_ratio[11] 	1
scalar tree_4_3_u08_r19_network.node[12].core_layer 	interests[12] 	24429
scalar tree_4_3_u08_r19_network.node[12].core_layer 	data[12] 	21610
scalar tree_4_3_u08_r19_network.node[12].content_store 	p_hit[12] 	0.11535470137951
scalar tree_4_3_u08_r19_network.node[12].content_store 	hits[12] 	2818
scalar tree_4_3_u08_r19_network.node[12].content_store 	misses[12] 	21611
scalar tree_4_3_u08_r19_network.node[12].content_store 	decision_yes[12] 	21608
scalar tree_4_3_u08_r19_network.node[12].content_store 	decision_no[12] 	0
scalar tree_4_3_u08_r19_network.node[12].content_store 	decision_ratio[12] 	1
scalar tree_4_3_u08_r19_network.node[13].core_layer 	interests[13] 	12696
scalar tree_4_3_u08_r19_network.node[13].core_layer 	data[13] 	10073
scalar tree_4_3_u08_r19_network.node[13].content_store 	p_hit[13] 	0.20660050409578
scalar tree_4_3_u08_r19_network.node[13].content_store 	hits[13] 	2623
scalar tree_4_3_u08_r19_network.node[13].content_store 	misses[13] 	10073
scalar tree_4_3_u08_r19_network.node[13].content_store 	decision_yes[13] 	10073
scalar tree_4_3_u08_r19_network.node[13].content_store 	decision_no[13] 	0
scalar tree_4_3_u08_r19_network.node[13].content_store 	decision_ratio[13] 	1
scalar tree_4_3_u08_r19_network.node[14].core_layer 	interests[14] 	13952
scalar tree_4_3_u08_r19_network.node[14].core_layer 	data[14] 	9972
scalar tree_4_3_u08_r19_network.node[14].content_store 	p_hit[14] 	0.28504873853211
scalar tree_4_3_u08_r19_network.node[14].content_store 	hits[14] 	3977
scalar tree_4_3_u08_r19_network.node[14].content_store 	misses[14] 	9975
scalar tree_4_3_u08_r19_network.node[14].content_store 	decision_yes[14] 	9972
scalar tree_4_3_u08_r19_network.node[14].content_store 	decision_no[14] 	0
scalar tree_4_3_u08_r19_network.node[14].content_store 	decision_ratio[14] 	1
scalar tree_4_3_u08_r19_network.node[15].core_layer 	interests[15] 	13910
scalar tree_4_3_u08_r19_network.node[15].core_layer 	data[15] 	9982
scalar tree_4_3_u08_r19_network.node[15].content_store 	p_hit[15] 	0.2823148813803
scalar tree_4_3_u08_r19_network.node[15].content_store 	hits[15] 	3927
scalar tree_4_3_u08_r19_network.node[15].content_store 	misses[15] 	9983
scalar tree_4_3_u08_r19_network.node[15].content_store 	decision_yes[15] 	9982
scalar tree_4_3_u08_r19_network.node[15].content_store 	decision_no[15] 	0
scalar tree_4_3_u08_r19_network.node[15].content_store 	decision_ratio[15] 	1
scalar tree_4_3_u08_r19_network.node[16].core_layer 	interests[16] 	14018
scalar tree_4_3_u08_r19_network.node[16].core_layer 	data[16] 	9954
scalar tree_4_3_u08_r19_network.node[16].content_store 	p_hit[16] 	0.28998430589242
scalar tree_4_3_u08_r19_network.node[16].content_store 	hits[16] 	4065
scalar tree_4_3_u08_r19_network.node[16].content_store 	misses[16] 	9953
scalar tree_4_3_u08_r19_network.node[16].content_store 	decision_yes[16] 	9954
scalar tree_4_3_u08_r19_network.node[16].content_store 	decision_no[16] 	0
scalar tree_4_3_u08_r19_network.node[16].content_store 	decision_ratio[16] 	1
scalar tree_4_3_u08_r19_network.node[17].core_layer 	interests[17] 	13181
scalar tree_4_3_u08_r19_network.node[17].core_layer 	data[17] 	10088
scalar tree_4_3_u08_r19_network.node[17].content_store 	p_hit[17] 	0.23465594416205
scalar tree_4_3_u08_r19_network.node[17].content_store 	hits[17] 	3093
scalar tree_4_3_u08_r19_network.node[17].content_store 	misses[17] 	10088
scalar tree_4_3_u08_r19_network.node[17].content_store 	decision_yes[17] 	10088
scalar tree_4_3_u08_r19_network.node[17].content_store 	decision_no[17] 	0
scalar tree_4_3_u08_r19_network.node[17].content_store 	decision_ratio[17] 	1
scalar tree_4_3_u08_r19_network.node[18].core_layer 	interests[18] 	14214
scalar tree_4_3_u08_r19_network.node[18].core_layer 	data[18] 	9965
scalar tree_4_3_u08_r19_network.node[18].content_store 	p_hit[18] 	0.29893063177149
scalar tree_4_3_u08_r19_network.node[18].content_store 	hits[18] 	4249
scalar tree_4_3_u08_r19_network.node[18].content_store 	misses[18] 	9965
scalar tree_4_3_u08_r19_network.node[18].content_store 	decision_yes[18] 	9965
scalar tree_4_3_u08_r19_network.node[18].content_store 	decision_no[18] 	0
scalar tree_4_3_u08_r19_network.node[18].content_store 	decision_ratio[18] 	1
scalar tree_4_3_u08_r19_network.node[19].core_layer 	interests[19] 	14024
scalar tree_4_3_u08_r19_network.node[19].core_layer 	data[19] 	9947
scalar tree_4_3_u08_r19_network.node[19].content_store 	p_hit[19] 	0.2907159155733
scalar tree_4_3_u08_r19_network.node[19].content_store 	hits[19] 	4077
scalar tree_4_3_u08_r19_network.node[19].content_store 	misses[19] 	9947
scalar tree_4_3_u08_r19_network.node[19].content_store 	decision_yes[19] 	9947
scalar tree_4_3_u08_r19_network.node[19].content_store 	decision_no[19] 	0
scalar tree_4_3_u08_r19_network.node[19].content_store 	decision_ratio[19] 	1
scalar tree_4_3_u08_r19_network.node[20].core_layer 	interests[20] 	14111
scalar tree_4_3_u08_r19_network.node[20].core_layer 	data[20] 	10048
scalar tree_4_3_u08_r19_network.node[20].content_store 	p_hit[20] 	0.28786053433492
scalar tree_4_3_u08_r19_network.node[20].content_store 	hits[20] 	4062
scalar tree_4_3_u08_r19_network.node[20].content_store 	misses[20] 	10049
scalar tree_4_3_u08_r19_network.node[20].content_store 	decision_yes[20] 	10048
scalar tree_4_3_u08_r19_network.node[20].content_store 	decision_no[20] 	0
scalar tree_4_3_u08_r19_network.node[20].content_store 	decision_ratio[20] 	1
scalar tree_4_3_u08_r19_network.node[21].core_layer 	interests[21] 	12619
scalar tree_4_3_u08_r19_network.node[21].core_layer 	data[21] 	10111
scalar tree_4_3_u08_r19_network.node[21].content_store 	p_hit[21] 	0.19866867422141
scalar tree_4_3_u08_r19_network.node[21].content_store 	hits[21] 	2507
scalar tree_4_3_u08_r19_network.node[21].content_store 	misses[21] 	10112
scalar tree_4_3_u08_r19_network.node[21].content_store 	decision_yes[21] 	10111
scalar tree_4_3_u08_r19_network.node[21].content_store 	decision_no[21] 	0
scalar tree_4_3_u08_r19_network.node[21].content_store 	decision_ratio[21] 	1
scalar tree_4_3_u08_r19_network.node[22].core_layer 	interests[22] 	12895
scalar tree_4_3_u08_r19_network.node[22].core_layer 	data[22] 	9821
scalar tree_4_3_u08_r19_network.node[22].content_store 	p_hit[22] 	0.23838697169446
scalar tree_4_3_u08_r19_network.node[22].content_store 	hits[22] 	3074
scalar tree_4_3_u08_r19_network.node[22].content_store 	misses[22] 	9821
scalar tree_4_3_u08_r19_network.node[22].content_store 	decision_yes[22] 	9821
scalar tree_4_3_u08_r19_network.node[22].content_store 	decision_no[22] 	0
scalar tree_4_3_u08_r19_network.node[22].content_store 	decision_ratio[22] 	1
scalar tree_4_3_u08_r19_network.node[23].core_layer 	interests[23] 	13762
scalar tree_4_3_u08_r19_network.node[23].core_layer 	data[23] 	9931
scalar tree_4_3_u08_r19_network.node[23].content_store 	p_hit[23] 	0.27837523615754
scalar tree_4_3_u08_r19_network.node[23].content_store 	hits[23] 	3831
scalar tree_4_3_u08_r19_network.node[23].content_store 	misses[23] 	9931
scalar tree_4_3_u08_r19_network.node[23].content_store 	decision_yes[23] 	9931
scalar tree_4_3_u08_r19_network.node[23].content_store 	decision_no[23] 	0
scalar tree_4_3_u08_r19_network.node[23].content_store 	decision_ratio[23] 	1
scalar tree_4_3_u08_r19_network.node[24].core_layer 	interests[24] 	14200
scalar tree_4_3_u08_r19_network.node[24].core_layer 	data[24] 	10045
scalar tree_4_3_u08_r19_network.node[24].content_store 	p_hit[24] 	0.29260563380282
scalar tree_4_3_u08_r19_network.node[24].content_store 	hits[24] 	4155
scalar tree_4_3_u08_r19_network.node[24].content_store 	misses[24] 	10045
scalar tree_4_3_u08_r19_network.node[24].content_store 	decision_yes[24] 	10045
scalar tree_4_3_u08_r19_network.node[24].content_store 	decision_no[24] 	0
scalar tree_4_3_u08_r19_network.node[24].content_store 	decision_ratio[24] 	1
scalar tree_4_3_u08_r19_network.node[25].core_layer 	interests[25] 	13860
scalar tree_4_3_u08_r19_network.node[25].core_layer 	data[25] 	10167
scalar tree_4_3_u08_r19_network.node[25].content_store 	p_hit[25] 	0.26616161616162
scalar tree_4_3_u08_r19_network.node[25].content_store 	hits[25] 	3689
scalar tree_4_3_u08_r19_network.node[25].content_store 	misses[25] 	10171
scalar tree_4_3_u08_r19_network.node[25].content_store 	decision_yes[25] 	10167
scalar tree_4_3_u08_r19_network.node[25].content_store 	decision_no[25] 	0
scalar tree_4_3_u08_r19_network.node[25].content_store 	decision_ratio[25] 	1
scalar tree_4_3_u08_r19_network.node[26].core_layer 	interests[26] 	12970
scalar tree_4_3_u08_r19_network.node[26].core_layer 	data[26] 	10095
scalar tree_4_3_u08_r19_network.node[26].content_store 	p_hit[26] 	0.22166538164996
scalar tree_4_3_u08_r19_network.node[26].content_store 	hits[26] 	2875
scalar tree_4_3_u08_r19_network.node[26].content_store 	misses[26] 	10095
scalar tree_4_3_u08_r19_network.node[26].content_store 	decision_yes[26] 	10095
scalar tree_4_3_u08_r19_network.node[26].content_store 	decision_no[26] 	0
scalar tree_4_3_u08_r19_network.node[26].content_store 	decision_ratio[26] 	1
scalar tree_4_3_u08_r19_network.node[27].core_layer 	interests[27] 	13961
scalar tree_4_3_u08_r19_network.node[27].core_layer 	data[27] 	10108
scalar tree_4_3_u08_r19_network.node[27].content_store 	p_hit[27] 	0.27583983955304
scalar tree_4_3_u08_r19_network.node[27].content_store 	hits[27] 	3851
scalar tree_4_3_u08_r19_network.node[27].content_store 	misses[27] 	10110
scalar tree_4_3_u08_r19_network.node[27].content_store 	decision_yes[27] 	10108
scalar tree_4_3_u08_r19_network.node[27].content_store 	decision_no[27] 	0
scalar tree_4_3_u08_r19_network.node[27].content_store 	decision_ratio[27] 	1
scalar tree_4_3_u08_r19_network.node[28].core_layer 	interests[28] 	13990
scalar tree_4_3_u08_r19_network.node[28].core_layer 	data[28] 	9967
scalar tree_4_3_u08_r19_network.node[28].content_store 	p_hit[28] 	0.28756254467477
scalar tree_4_3_u08_r19_network.node[28].content_store 	hits[28] 	4023
scalar tree_4_3_u08_r19_network.node[28].content_store 	misses[28] 	9967
scalar tree_4_3_u08_r19_network.node[28].content_store 	decision_yes[28] 	9967
scalar tree_4_3_u08_r19_network.node[28].content_store 	decision_no[28] 	0
scalar tree_4_3_u08_r19_network.node[28].content_store 	decision_ratio[28] 	1
scalar tree_4_3_u08_r19_network.node[29].core_layer 	interests[29] 	13947
scalar tree_4_3_u08_r19_network.node[29].core_layer 	data[29] 	9881
scalar tree_4_3_u08_r19_network.node[29].content_store 	p_hit[29] 	0.29146052914605
scalar tree_4_3_u08_r19_network.node[29].content_store 	hits[29] 	4065
scalar tree_4_3_u08_r19_network.node[29].content_store 	misses[29] 	9882
scalar tree_4_3_u08_r19_network.node[29].content_store 	decision_yes[29] 	9881
scalar tree_4_3_u08_r19_network.node[29].content_store 	decision_no[29] 	0
scalar tree_4_3_u08_r19_network.node[29].content_store 	decision_ratio[29] 	1
scalar tree_4_3_u08_r19_network.node[30].core_layer 	interests[30] 	12718
scalar tree_4_3_u08_r19_network.node[30].core_layer 	data[30] 	10192
scalar tree_4_3_u08_r19_network.node[30].content_store 	p_hit[30] 	0.19845887718195
scalar tree_4_3_u08_r19_network.node[30].content_store 	hits[30] 	2524
scalar tree_4_3_u08_r19_network.node[30].content_store 	misses[30] 	10194
scalar tree_4_3_u08_r19_network.node[30].content_store 	decision_yes[30] 	10192
scalar tree_4_3_u08_r19_network.node[30].content_store 	decision_no[30] 	0
scalar tree_4_3_u08_r19_network.node[30].content_store 	decision_ratio[30] 	1
scalar tree_4_3_u08_r19_network.node[31].core_layer 	interests[31] 	12552
scalar tree_4_3_u08_r19_network.node[31].core_layer 	data[31] 	10114
scalar tree_4_3_u08_r19_network.node[31].content_store 	p_hit[31] 	0.19423199490121
scalar tree_4_3_u08_r19_network.node[31].content_store 	hits[31] 	2438
scalar tree_4_3_u08_r19_network.node[31].content_store 	misses[31] 	10114
scalar tree_4_3_u08_r19_network.node[31].content_store 	decision_yes[31] 	10114
scalar tree_4_3_u08_r19_network.node[31].content_store 	decision_no[31] 	0
scalar tree_4_3_u08_r19_network.node[31].content_store 	decision_ratio[31] 	1
scalar tree_4_3_u08_r19_network.node[32].core_layer 	interests[32] 	14200
scalar tree_4_3_u08_r19_network.node[32].core_layer 	data[32] 	9943
scalar tree_4_3_u08_r19_network.node[32].content_store 	p_hit[32] 	0.29978873239437
scalar tree_4_3_u08_r19_network.node[32].content_store 	hits[32] 	4257
scalar tree_4_3_u08_r19_network.node[32].content_store 	misses[32] 	9943
scalar tree_4_3_u08_r19_network.node[32].content_store 	decision_yes[32] 	9943
scalar tree_4_3_u08_r19_network.node[32].content_store 	decision_no[32] 	0
scalar tree_4_3_u08_r19_network.node[32].content_store 	decision_ratio[32] 	1
scalar tree_4_3_u08_r19_network.node[33].core_layer 	interests[33] 	13480
scalar tree_4_3_u08_r19_network.node[33].core_layer 	data[33] 	9834
scalar tree_4_3_u08_r19_network.node[33].content_store 	p_hit[33] 	0.27040059347181
scalar tree_4_3_u08_r19_network.node[33].content_store 	hits[33] 	3645
scalar tree_4_3_u08_r19_network.node[33].content_store 	misses[33] 	9835
scalar tree_4_3_u08_r19_network.node[33].content_store 	decision_yes[33] 	9834
scalar tree_4_3_u08_r19_network.node[33].content_store 	decision_no[33] 	0
scalar tree_4_3_u08_r19_network.node[33].content_store 	decision_ratio[33] 	1
scalar tree_4_3_u08_r19_network.node[34].core_layer 	interests[34] 	13676
scalar tree_4_3_u08_r19_network.node[34].core_layer 	data[34] 	10126
scalar tree_4_3_u08_r19_network.node[34].content_store 	p_hit[34] 	0.25957882421761
scalar tree_4_3_u08_r19_network.node[34].content_store 	hits[34] 	3550
scalar tree_4_3_u08_r19_network.node[34].content_store 	misses[34] 	10126
scalar tree_4_3_u08_r19_network.node[34].content_store 	decision_yes[34] 	10126
scalar tree_4_3_u08_r19_network.node[34].content_store 	decision_no[34] 	0
scalar tree_4_3_u08_r19_network.node[34].content_store 	decision_ratio[34] 	1
scalar tree_4_3_u08_r19_network.node[35].core_layer 	interests[35] 	13711
scalar tree_4_3_u08_r19_network.node[35].core_layer 	data[35] 	10081
scalar tree_4_3_u08_r19_network.node[35].content_store 	p_hit[35] 	0.26453212748888
scalar tree_4_3_u08_r19_network.node[35].content_store 	hits[35] 	3627
scalar tree_4_3_u08_r19_network.node[35].content_store 	misses[35] 	10084
scalar tree_4_3_u08_r19_network.node[35].content_store 	decision_yes[35] 	10081
scalar tree_4_3_u08_r19_network.node[35].content_store 	decision_no[35] 	0
scalar tree_4_3_u08_r19_network.node[35].content_store 	decision_ratio[35] 	1
scalar tree_4_3_u08_r19_network.node[36].core_layer 	interests[36] 	14851
scalar tree_4_3_u08_r19_network.node[36].core_layer 	data[36] 	10203
scalar tree_4_3_u08_r19_network.node[36].content_store 	p_hit[36] 	0.31290822166857
scalar tree_4_3_u08_r19_network.node[36].content_store 	hits[36] 	4647
scalar tree_4_3_u08_r19_network.node[36].content_store 	misses[36] 	10204
scalar tree_4_3_u08_r19_network.node[36].content_store 	decision_yes[36] 	10203
scalar tree_4_3_u08_r19_network.node[36].content_store 	decision_no[36] 	0
scalar tree_4_3_u08_r19_network.node[36].content_store 	decision_ratio[36] 	1
scalar tree_4_3_u08_r19_network.node[37].core_layer 	interests[37] 	12792
scalar tree_4_3_u08_r19_network.node[37].core_layer 	data[37] 	10034
scalar tree_4_3_u08_r19_network.node[37].content_store 	p_hit[37] 	0.21560350218887
scalar tree_4_3_u08_r19_network.node[37].content_store 	hits[37] 	2758
scalar tree_4_3_u08_r19_network.node[37].content_store 	misses[37] 	10034
scalar tree_4_3_u08_r19_network.node[37].content_store 	decision_yes[37] 	10034
scalar tree_4_3_u08_r19_network.node[37].content_store 	decision_no[37] 	0
scalar tree_4_3_u08_r19_network.node[37].content_store 	decision_ratio[37] 	1
scalar tree_4_3_u08_r19_network.node[38].core_layer 	interests[38] 	14579
scalar tree_4_3_u08_r19_network.node[38].core_layer 	data[38] 	10130
scalar tree_4_3_u08_r19_network.node[38].content_store 	p_hit[38] 	0.30523355511352
scalar tree_4_3_u08_r19_network.node[38].content_store 	hits[38] 	4450
scalar tree_4_3_u08_r19_network.node[38].content_store 	misses[38] 	10129
scalar tree_4_3_u08_r19_network.node[38].content_store 	decision_yes[38] 	10130
scalar tree_4_3_u08_r19_network.node[38].content_store 	decision_no[38] 	0
scalar tree_4_3_u08_r19_network.node[38].content_store 	decision_ratio[38] 	1
scalar tree_4_3_u08_r19_network.node[39].core_layer 	interests[39] 	12826
scalar tree_4_3_u08_r19_network.node[39].core_layer 	data[39] 	10048
scalar tree_4_3_u08_r19_network.node[39].content_store 	p_hit[39] 	0.21659129892406
scalar tree_4_3_u08_r19_network.node[39].content_store 	hits[39] 	2778
scalar tree_4_3_u08_r19_network.node[39].content_store 	misses[39] 	10048
scalar tree_4_3_u08_r19_network.node[39].content_store 	decision_yes[39] 	10048
scalar tree_4_3_u08_r19_network.node[39].content_store 	decision_no[39] 	0
scalar tree_4_3_u08_r19_network.node[39].content_store 	decision_ratio[39] 	1
scalar tree_4_3_u08_r19_network.client[13] 	hdistance[13] 	3.0944231090332
scalar tree_4_3_u08_r19_network.client[13] 	downloads[13] 	11978
scalar tree_4_3_u08_r19_network.client[13] 	avg_time[13] 	0.004826933096
scalar tree_4_3_u08_r19_network.client[14] 	hdistance[14] 	2.9912977357215
scalar tree_4_3_u08_r19_network.client[14] 	downloads[14] 	11836
scalar tree_4_3_u08_r19_network.client[14] 	avg_time[14] 	0.004758089565
scalar tree_4_3_u08_r19_network.client[15] 	hdistance[15] 	2.9476812322116
scalar tree_4_3_u08_r19_network.client[15] 	downloads[15] 	11946
scalar tree_4_3_u08_r19_network.client[15] 	avg_time[15] 	0.00468591544
scalar tree_4_3_u08_r19_network.client[16] 	hdistance[16] 	2.9787198250484
scalar tree_4_3_u08_r19_network.client[16] 	downloads[16] 	11889
scalar tree_4_3_u08_r19_network.client[16] 	avg_time[16] 	0.004732578319
scalar tree_4_3_u08_r19_network.client[17] 	hdistance[17] 	3.03922388559
scalar tree_4_3_u08_r19_network.client[17] 	downloads[17] 	11957
scalar tree_4_3_u08_r19_network.client[17] 	avg_time[17] 	0.004875342732
scalar tree_4_3_u08_r19_network.client[18] 	hdistance[18] 	2.8960234407702
scalar tree_4_3_u08_r19_network.client[18] 	downloads[18] 	11945
scalar tree_4_3_u08_r19_network.client[18] 	avg_time[18] 	0.004616605038
scalar tree_4_3_u08_r19_network.client[19] 	hdistance[19] 	2.921539104977
scalar tree_4_3_u08_r19_network.client[19] 	downloads[19] 	11955
scalar tree_4_3_u08_r19_network.client[19] 	avg_time[19] 	0.004648930514
scalar tree_4_3_u08_r19_network.client[20] 	hdistance[20] 	2.9387567024129
scalar tree_4_3_u08_r19_network.client[20] 	downloads[20] 	11936
scalar tree_4_3_u08_r19_network.client[20] 	avg_time[20] 	0.004690215899
scalar tree_4_3_u08_r19_network.client[21] 	hdistance[21] 	3.0473476912763
scalar tree_4_3_u08_r19_network.client[21] 	downloads[21] 	11933
scalar tree_4_3_u08_r19_network.client[21] 	avg_time[21] 	0.004873287952
scalar tree_4_3_u08_r19_network.client[22] 	hdistance[22] 	3.065315892964
scalar tree_4_3_u08_r19_network.client[22] 	downloads[22] 	11697
scalar tree_4_3_u08_r19_network.client[22] 	avg_time[22] 	0.004889087513
scalar tree_4_3_u08_r19_network.client[23] 	hdistance[23] 	2.9990711028542
scalar tree_4_3_u08_r19_network.client[23] 	downloads[23] 	11842
scalar tree_4_3_u08_r19_network.client[23] 	avg_time[23] 	0.004752548981
scalar tree_4_3_u08_r19_network.client[24] 	hdistance[24] 	2.9296946501373
scalar tree_4_3_u08_r19_network.client[24] 	downloads[24] 	12019
scalar tree_4_3_u08_r19_network.client[24] 	avg_time[24] 	0.004665143151
scalar tree_4_3_u08_r19_network.client[25] 	hdistance[25] 	3.0024030493868
scalar tree_4_3_u08_r19_network.client[25] 	downloads[25] 	12068
scalar tree_4_3_u08_r19_network.client[25] 	avg_time[25] 	0.004754661049
scalar tree_4_3_u08_r19_network.client[26] 	hdistance[26] 	3.0725155925156
scalar tree_4_3_u08_r19_network.client[26] 	downloads[26] 	12025
scalar tree_4_3_u08_r19_network.client[26] 	avg_time[26] 	0.004893136299
scalar tree_4_3_u08_r19_network.client[27] 	hdistance[27] 	2.9751865202448
scalar tree_4_3_u08_r19_network.client[27] 	downloads[27] 	11929
scalar tree_4_3_u08_r19_network.client[27] 	avg_time[27] 	0.004737216359
scalar tree_4_3_u08_r19_network.client[28] 	hdistance[28] 	2.9268846121523
scalar tree_4_3_u08_r19_network.client[28] 	downloads[28] 	11899
scalar tree_4_3_u08_r19_network.client[28] 	avg_time[28] 	0.004664855908
scalar tree_4_3_u08_r19_network.client[29] 	hdistance[29] 	2.9470198675497
scalar tree_4_3_u08_r19_network.client[29] 	downloads[29] 	11778
scalar tree_4_3_u08_r19_network.client[29] 	avg_time[29] 	0.004689691638
scalar tree_4_3_u08_r19_network.client[30] 	hdistance[30] 	3.0231573705179
scalar tree_4_3_u08_r19_network.client[30] 	downloads[30] 	12048
scalar tree_4_3_u08_r19_network.client[30] 	avg_time[30] 	0.004848310789
scalar tree_4_3_u08_r19_network.client[31] 	hdistance[31] 	3.1338404949005
scalar tree_4_3_u08_r19_network.client[31] 	downloads[31] 	11962
scalar tree_4_3_u08_r19_network.client[31] 	avg_time[31] 	0.005017050994
scalar tree_4_3_u08_r19_network.client[32] 	hdistance[32] 	2.9668857431749
scalar tree_4_3_u08_r19_network.client[32] 	downloads[32] 	11868
scalar tree_4_3_u08_r19_network.client[32] 	avg_time[32] 	0.00473906662
scalar tree_4_3_u08_r19_network.client[33] 	hdistance[33] 	2.987684729064
scalar tree_4_3_u08_r19_network.client[33] 	downloads[33] 	11774
scalar tree_4_3_u08_r19_network.client[33] 	avg_time[33] 	0.00473588515
scalar tree_4_3_u08_r19_network.client[34] 	hdistance[34] 	3.0111662531017
scalar tree_4_3_u08_r19_network.client[34] 	downloads[34] 	12090
scalar tree_4_3_u08_r19_network.client[34] 	avg_time[34] 	0.004825968834
scalar tree_4_3_u08_r19_network.client[35] 	hdistance[35] 	3.0116259757515
scalar tree_4_3_u08_r19_network.client[35] 	downloads[35] 	12042
scalar tree_4_3_u08_r19_network.client[35] 	avg_time[35] 	0.004835079727
scalar tree_4_3_u08_r19_network.client[36] 	hdistance[36] 	2.9200915107443
scalar tree_4_3_u08_r19_network.client[36] 	downloads[36] 	12239
scalar tree_4_3_u08_r19_network.client[36] 	avg_time[36] 	0.004672922191
scalar tree_4_3_u08_r19_network.client[37] 	hdistance[37] 	3.057358490566
scalar tree_4_3_u08_r19_network.client[37] 	downloads[37] 	11925
scalar tree_4_3_u08_r19_network.client[37] 	avg_time[37] 	0.004867586109
scalar tree_4_3_u08_r19_network.client[38] 	hdistance[38] 	2.9380318929191
scalar tree_4_3_u08_r19_network.client[38] 	downloads[38] 	12103
scalar tree_4_3_u08_r19_network.client[38] 	avg_time[38] 	0.004679002172
scalar tree_4_3_u08_r19_network.client[39] 	hdistance[39] 	3.0481122619445
scalar tree_4_3_u08_r19_network.client[39] 	downloads[39] 	11972
scalar tree_4_3_u08_r19_network.client[39] 	avg_time[39] 	0.004855195879
