version 2
run General-173-20160819-17:45:53-23511
attr a 0.9
attr cd lce
attr configname General
attr cr lru
attr datetime 20160819-17:45:53
attr experiment General
attr fsize 1
attr inifile hw5115/scenario_A/NRR-LCE.ini
attr iterationvars "$name=tree_4_3, $un=08, $rep=14, $cd=lce, $cr=lru, $fsize=1, $a=0.9, $sl=nrr, $ttl=1000, $variance=0.05"
attr iterationvars2 "$name=tree_4_3, $un=08, $rep=14, $cd=lce, $cr=lru, $fsize=1, $a=0.9, $sl=nrr, $ttl=1000, $variance=0.05, $repetition=0"
attr measurement "$name=tree_4_3, $un=08, $rep=14, $cd=lce, $cr=lru, $fsize=1, $a=0.9, $sl=nrr, $ttl=1000, $variance=0.05"
attr name tree_4_3
attr network networks.${name}_u${un}_r${rep}_network
attr processid 23511
attr rep 14
attr repetition 0
attr replication #0
attr resultdir results
attr runnumber 173
attr seedset 14
attr sl nrr
attr ttl 1000
attr un 08
attr variance 0.05

scalar . 	a 	0.9
scalar . 	fsize 	1
scalar . 	rep 	14
scalar . 	ttl 	1000
scalar . 	un 	08
scalar . 	variance 	0.05
scalar tree_4_3_u08_r14_network.content_distribution 	repo-0 	0
scalar tree_4_3_u08_r14_network.content_distribution 	client-0 	13
scalar tree_4_3_u08_r14_network.content_distribution 	client-1 	14
scalar tree_4_3_u08_r14_network.content_distribution 	client-2 	15
scalar tree_4_3_u08_r14_network.content_distribution 	client-3 	16
scalar tree_4_3_u08_r14_network.content_distribution 	client-4 	17
scalar tree_4_3_u08_r14_network.content_distribution 	client-5 	18
scalar tree_4_3_u08_r14_network.content_distribution 	client-6 	19
scalar tree_4_3_u08_r14_network.content_distribution 	client-7 	20
scalar tree_4_3_u08_r14_network.content_distribution 	client-8 	21
scalar tree_4_3_u08_r14_network.content_distribution 	client-9 	22
scalar tree_4_3_u08_r14_network.content_distribution 	client-10 	23
scalar tree_4_3_u08_r14_network.content_distribution 	client-11 	24
scalar tree_4_3_u08_r14_network.content_distribution 	client-12 	25
scalar tree_4_3_u08_r14_network.content_distribution 	client-13 	26
scalar tree_4_3_u08_r14_network.content_distribution 	client-14 	27
scalar tree_4_3_u08_r14_network.content_distribution 	client-15 	28
scalar tree_4_3_u08_r14_network.content_distribution 	client-16 	29
scalar tree_4_3_u08_r14_network.content_distribution 	client-17 	30
scalar tree_4_3_u08_r14_network.content_distribution 	client-18 	31
scalar tree_4_3_u08_r14_network.content_distribution 	client-19 	32
scalar tree_4_3_u08_r14_network.content_distribution 	client-20 	33
scalar tree_4_3_u08_r14_network.content_distribution 	client-21 	34
scalar tree_4_3_u08_r14_network.content_distribution 	client-22 	35
scalar tree_4_3_u08_r14_network.content_distribution 	client-23 	36
scalar tree_4_3_u08_r14_network.content_distribution 	client-24 	37
scalar tree_4_3_u08_r14_network.content_distribution 	client-25 	38
scalar tree_4_3_u08_r14_network.content_distribution 	client-26 	39
scalar tree_4_3_u08_r14_network.content_distribution 	repo-0_card 	100000
scalar tree_4_3_u08_r14_network.content_distribution 	repo-0_price 	0
scalar tree_4_3_u08_r14_network.statistics 	stabilization_time 	468.5
scalar tree_4_3_u08_r14_network.statistics 	p_hit 	0.20167325798097
scalar tree_4_3_u08_r14_network.statistics 	interests 	27562.4
scalar tree_4_3_u08_r14_network.statistics 	data 	19448.45
scalar tree_4_3_u08_r14_network.statistics 	hdistance 	3.0004549266753
scalar tree_4_3_u08_r14_network.statistics 	avg_time 	0.004793642442
scalar tree_4_3_u08_r14_network.statistics 	downloads 	324552
scalar tree_4_3_u08_r14_network.statistics 	total_cost 	0
scalar tree_4_3_u08_r14_network.statistics 	total_replicas 	100000
scalar tree_4_3_u08_r14_network.statistics 	inner_hit 	0.39631245532303
scalar tree_4_3_u08_r14_network.node[0].core_layer 	interests[0] 	196337
scalar tree_4_3_u08_r14_network.node[0].core_layer 	repo_load[0] 	195928
scalar tree_4_3_u08_r14_network.node[0].core_layer 	data[0] 	0
scalar tree_4_3_u08_r14_network.node[0].core_layer 	repo_int[0] 	195928
scalar tree_4_3_u08_r14_network.node[0].content_store 	p_hit[0] 	0.0020831529462098
scalar tree_4_3_u08_r14_network.node[0].content_store 	hits[0] 	409
scalar tree_4_3_u08_r14_network.node[0].content_store 	misses[0] 	195928
scalar tree_4_3_u08_r14_network.node[0].content_store 	decision_yes[0] 	195928
scalar tree_4_3_u08_r14_network.node[0].content_store 	decision_no[0] 	0
scalar tree_4_3_u08_r14_network.node[0].content_store 	decision_ratio[0] 	1
scalar tree_4_3_u08_r14_network.node[1].core_layer 	interests[1] 	154090
scalar tree_4_3_u08_r14_network.node[1].core_layer 	data[1] 	152748
scalar tree_4_3_u08_r14_network.node[1].content_store 	p_hit[1] 	0.008670257641638
scalar tree_4_3_u08_r14_network.node[1].content_store 	hits[1] 	1336
scalar tree_4_3_u08_r14_network.node[1].content_store 	misses[1] 	152754
scalar tree_4_3_u08_r14_network.node[1].content_store 	decision_yes[1] 	152722
scalar tree_4_3_u08_r14_network.node[1].content_store 	decision_no[1] 	0
scalar tree_4_3_u08_r14_network.node[1].content_store 	decision_ratio[1] 	1
scalar tree_4_3_u08_r14_network.node[2].core_layer 	interests[2] 	52179
scalar tree_4_3_u08_r14_network.node[2].core_layer 	data[2] 	50925
scalar tree_4_3_u08_r14_network.node[2].content_store 	p_hit[2] 	0.023994327219763
scalar tree_4_3_u08_r14_network.node[2].content_store 	hits[2] 	1252
scalar tree_4_3_u08_r14_network.node[2].content_store 	misses[2] 	50927
scalar tree_4_3_u08_r14_network.node[2].content_store 	decision_yes[2] 	50918
scalar tree_4_3_u08_r14_network.node[2].content_store 	decision_no[2] 	0
scalar tree_4_3_u08_r14_network.node[2].content_store 	decision_ratio[2] 	1
scalar tree_4_3_u08_r14_network.node[3].core_layer 	interests[3] 	26108
scalar tree_4_3_u08_r14_network.node[3].core_layer 	data[3] 	23312
scalar tree_4_3_u08_r14_network.node[3].content_store 	p_hit[3] 	0.10709361115367
scalar tree_4_3_u08_r14_network.node[3].content_store 	hits[3] 	2796
scalar tree_4_3_u08_r14_network.node[3].content_store 	misses[3] 	23312
scalar tree_4_3_u08_r14_network.node[3].content_store 	decision_yes[3] 	23308
scalar tree_4_3_u08_r14_network.node[3].content_store 	decision_no[3] 	0
scalar tree_4_3_u08_r14_network.node[3].content_store 	decision_ratio[3] 	1
scalar tree_4_3_u08_r14_network.node[4].core_layer 	interests[4] 	49836
scalar tree_4_3_u08_r14_network.node[4].core_layer 	data[4] 	47754
scalar tree_4_3_u08_r14_network.node[4].content_store 	p_hit[4] 	0.041716831206357
scalar tree_4_3_u08_r14_network.node[4].content_store 	hits[4] 	2079
scalar tree_4_3_u08_r14_network.node[4].content_store 	misses[4] 	47757
scalar tree_4_3_u08_r14_network.node[4].content_store 	decision_yes[4] 	47752
scalar tree_4_3_u08_r14_network.node[4].content_store 	decision_no[4] 	0
scalar tree_4_3_u08_r14_network.node[4].content_store 	decision_ratio[4] 	1
scalar tree_4_3_u08_r14_network.node[5].core_layer 	interests[5] 	23084
scalar tree_4_3_u08_r14_network.node[5].core_layer 	data[5] 	20568
scalar tree_4_3_u08_r14_network.node[5].content_store 	p_hit[5] 	0.10903656212095
scalar tree_4_3_u08_r14_network.node[5].content_store 	hits[5] 	2517
scalar tree_4_3_u08_r14_network.node[5].content_store 	misses[5] 	20567
scalar tree_4_3_u08_r14_network.node[5].content_store 	decision_yes[5] 	20566
scalar tree_4_3_u08_r14_network.node[5].content_store 	decision_no[5] 	0
scalar tree_4_3_u08_r14_network.node[5].content_store 	decision_ratio[5] 	1
scalar tree_4_3_u08_r14_network.node[6].core_layer 	interests[6] 	28735
scalar tree_4_3_u08_r14_network.node[6].core_layer 	data[6] 	24547
scalar tree_4_3_u08_r14_network.node[6].content_store 	p_hit[6] 	0.14567600487211
scalar tree_4_3_u08_r14_network.node[6].content_store 	hits[6] 	4186
scalar tree_4_3_u08_r14_network.node[6].content_store 	misses[6] 	24549
scalar tree_4_3_u08_r14_network.node[6].content_store 	decision_yes[6] 	24544
scalar tree_4_3_u08_r14_network.node[6].content_store 	decision_no[6] 	0
scalar tree_4_3_u08_r14_network.node[6].content_store 	decision_ratio[6] 	1
scalar tree_4_3_u08_r14_network.node[7].core_layer 	interests[7] 	52123
scalar tree_4_3_u08_r14_network.node[7].core_layer 	data[7] 	49525
scalar tree_4_3_u08_r14_network.node[7].content_store 	p_hit[7] 	0.049843639084473
scalar tree_4_3_u08_r14_network.node[7].content_store 	hits[7] 	2598
scalar tree_4_3_u08_r14_network.node[7].content_store 	misses[7] 	49525
scalar tree_4_3_u08_r14_network.node[7].content_store 	decision_yes[7] 	49520
scalar tree_4_3_u08_r14_network.node[7].content_store 	decision_no[7] 	0
scalar tree_4_3_u08_r14_network.node[7].content_store 	decision_ratio[7] 	1
scalar tree_4_3_u08_r14_network.node[8].core_layer 	interests[8] 	20735
scalar tree_4_3_u08_r14_network.node[8].core_layer 	data[8] 	19015
scalar tree_4_3_u08_r14_network.node[8].content_store 	p_hit[8] 	0.082855075958524
scalar tree_4_3_u08_r14_network.node[8].content_store 	hits[8] 	1718
scalar tree_4_3_u08_r14_network.node[8].content_store 	misses[8] 	19017
scalar tree_4_3_u08_r14_network.node[8].content_store 	decision_yes[8] 	19015
scalar tree_4_3_u08_r14_network.node[8].content_store 	decision_no[8] 	0
scalar tree_4_3_u08_r14_network.node[8].content_store 	decision_ratio[8] 	1
scalar tree_4_3_u08_r14_network.node[9].core_layer 	interests[9] 	27986
scalar tree_4_3_u08_r14_network.node[9].core_layer 	data[9] 	24221
scalar tree_4_3_u08_r14_network.node[9].content_store 	p_hit[9] 	0.13453155149003
scalar tree_4_3_u08_r14_network.node[9].content_store 	hits[9] 	3765
scalar tree_4_3_u08_r14_network.node[9].content_store 	misses[9] 	24221
scalar tree_4_3_u08_r14_network.node[9].content_store 	decision_yes[9] 	24220
scalar tree_4_3_u08_r14_network.node[9].content_store 	decision_no[9] 	0
scalar tree_4_3_u08_r14_network.node[9].content_store 	decision_ratio[9] 	1
scalar tree_4_3_u08_r14_network.node[10].core_layer 	interests[10] 	52596
scalar tree_4_3_u08_r14_network.node[10].core_layer 	data[10] 	49884
scalar tree_4_3_u08_r14_network.node[10].content_store 	p_hit[10] 	0.051543843638299
scalar tree_4_3_u08_r14_network.node[10].content_store 	hits[10] 	2711
scalar tree_4_3_u08_r14_network.node[10].content_store 	misses[10] 	49885
scalar tree_4_3_u08_r14_network.node[10].content_store 	decision_yes[10] 	49875
scalar tree_4_3_u08_r14_network.node[10].content_store 	decision_no[10] 	0
scalar tree_4_3_u08_r14_network.node[10].content_store 	decision_ratio[10] 	1
scalar tree_4_3_u08_r14_network.node[11].core_layer 	interests[11] 	24025
scalar tree_4_3_u08_r14_network.node[11].core_layer 	data[11] 	21155
scalar tree_4_3_u08_r14_network.node[11].content_store 	p_hit[11] 	0.11954214360042
scalar tree_4_3_u08_r14_network.node[11].content_store 	hits[11] 	2872
scalar tree_4_3_u08_r14_network.node[11].content_store 	misses[11] 	21153
scalar tree_4_3_u08_r14_network.node[11].content_store 	decision_yes[11] 	21154
scalar tree_4_3_u08_r14_network.node[11].content_store 	decision_no[11] 	0
scalar tree_4_3_u08_r14_network.node[11].content_store 	decision_ratio[11] 	1
scalar tree_4_3_u08_r14_network.node[12].core_layer 	interests[12] 	24142
scalar tree_4_3_u08_r14_network.node[12].core_layer 	data[12] 	21666
scalar tree_4_3_u08_r14_network.node[12].content_store 	p_hit[12] 	0.10247701101814
scalar tree_4_3_u08_r14_network.node[12].content_store 	hits[12] 	2474
scalar tree_4_3_u08_r14_network.node[12].content_store 	misses[12] 	21668
scalar tree_4_3_u08_r14_network.node[12].content_store 	decision_yes[12] 	21665
scalar tree_4_3_u08_r14_network.node[12].content_store 	decision_no[12] 	0
scalar tree_4_3_u08_r14_network.node[12].content_store 	decision_ratio[12] 	1
scalar tree_4_3_u08_r14_network.node[13].core_layer 	interests[13] 	13380
scalar tree_4_3_u08_r14_network.node[13].core_layer 	data[13] 	10046
scalar tree_4_3_u08_r14_network.node[13].content_store 	p_hit[13] 	0.249177877429
scalar tree_4_3_u08_r14_network.node[13].content_store 	hits[13] 	3334
scalar tree_4_3_u08_r14_network.node[13].content_store 	misses[13] 	10046
scalar tree_4_3_u08_r14_network.node[13].content_store 	decision_yes[13] 	10046
scalar tree_4_3_u08_r14_network.node[13].content_store 	decision_no[13] 	0
scalar tree_4_3_u08_r14_network.node[13].content_store 	decision_ratio[13] 	1
scalar tree_4_3_u08_r14_network.node[14].core_layer 	interests[14] 	13170
scalar tree_4_3_u08_r14_network.node[14].core_layer 	data[14] 	9978
scalar tree_4_3_u08_r14_network.node[14].content_store 	p_hit[14] 	0.24236902050114
scalar tree_4_3_u08_r14_network.node[14].content_store 	hits[14] 	3192
scalar tree_4_3_u08_r14_network.node[14].content_store 	misses[14] 	9978
scalar tree_4_3_u08_r14_network.node[14].content_store 	decision_yes[14] 	9978
scalar tree_4_3_u08_r14_network.node[14].content_store 	decision_no[14] 	0
scalar tree_4_3_u08_r14_network.node[14].content_store 	decision_ratio[14] 	1
scalar tree_4_3_u08_r14_network.node[15].core_layer 	interests[15] 	14665
scalar tree_4_3_u08_r14_network.node[15].core_layer 	data[15] 	10160
scalar tree_4_3_u08_r14_network.node[15].content_store 	p_hit[15] 	0.30705762018411
scalar tree_4_3_u08_r14_network.node[15].content_store 	hits[15] 	4503
scalar tree_4_3_u08_r14_network.node[15].content_store 	misses[15] 	10162
scalar tree_4_3_u08_r14_network.node[15].content_store 	decision_yes[15] 	10160
scalar tree_4_3_u08_r14_network.node[15].content_store 	decision_no[15] 	0
scalar tree_4_3_u08_r14_network.node[15].content_store 	decision_ratio[15] 	1
scalar tree_4_3_u08_r14_network.node[16].core_layer 	interests[16] 	14170
scalar tree_4_3_u08_r14_network.node[16].core_layer 	data[16] 	9971
scalar tree_4_3_u08_r14_network.node[16].content_store 	p_hit[16] 	0.29640084685956
scalar tree_4_3_u08_r14_network.node[16].content_store 	hits[16] 	4200
scalar tree_4_3_u08_r14_network.node[16].content_store 	misses[16] 	9970
scalar tree_4_3_u08_r14_network.node[16].content_store 	decision_yes[16] 	9971
scalar tree_4_3_u08_r14_network.node[16].content_store 	decision_no[16] 	0
scalar tree_4_3_u08_r14_network.node[16].content_store 	decision_ratio[16] 	1
scalar tree_4_3_u08_r14_network.node[17].core_layer 	interests[17] 	12821
scalar tree_4_3_u08_r14_network.node[17].core_layer 	data[17] 	10086
scalar tree_4_3_u08_r14_network.node[17].content_store 	p_hit[17] 	0.21332189376804
scalar tree_4_3_u08_r14_network.node[17].content_store 	hits[17] 	2735
scalar tree_4_3_u08_r14_network.node[17].content_store 	misses[17] 	10086
scalar tree_4_3_u08_r14_network.node[17].content_store 	decision_yes[17] 	10086
scalar tree_4_3_u08_r14_network.node[17].content_store 	decision_no[17] 	0
scalar tree_4_3_u08_r14_network.node[17].content_store 	decision_ratio[17] 	1
scalar tree_4_3_u08_r14_network.node[18].core_layer 	interests[18] 	14013
scalar tree_4_3_u08_r14_network.node[18].core_layer 	data[18] 	10039
scalar tree_4_3_u08_r14_network.node[18].content_store 	p_hit[18] 	0.28366516805823
scalar tree_4_3_u08_r14_network.node[18].content_store 	hits[18] 	3975
scalar tree_4_3_u08_r14_network.node[18].content_store 	misses[18] 	10038
scalar tree_4_3_u08_r14_network.node[18].content_store 	decision_yes[18] 	10039
scalar tree_4_3_u08_r14_network.node[18].content_store 	decision_no[18] 	0
scalar tree_4_3_u08_r14_network.node[18].content_store 	decision_ratio[18] 	1
scalar tree_4_3_u08_r14_network.node[19].core_layer 	interests[19] 	14629
scalar tree_4_3_u08_r14_network.node[19].core_layer 	data[19] 	10187
scalar tree_4_3_u08_r14_network.node[19].content_store 	p_hit[19] 	0.30364344794586
scalar tree_4_3_u08_r14_network.node[19].content_store 	hits[19] 	4442
scalar tree_4_3_u08_r14_network.node[19].content_store 	misses[19] 	10187
scalar tree_4_3_u08_r14_network.node[19].content_store 	decision_yes[19] 	10187
scalar tree_4_3_u08_r14_network.node[19].content_store 	decision_no[19] 	0
scalar tree_4_3_u08_r14_network.node[19].content_store 	decision_ratio[19] 	1
scalar tree_4_3_u08_r14_network.node[20].core_layer 	interests[20] 	13259
scalar tree_4_3_u08_r14_network.node[20].core_layer 	data[20] 	10164
scalar tree_4_3_u08_r14_network.node[20].content_store 	p_hit[20] 	0.23335093144279
scalar tree_4_3_u08_r14_network.node[20].content_store 	hits[20] 	3094
scalar tree_4_3_u08_r14_network.node[20].content_store 	misses[20] 	10165
scalar tree_4_3_u08_r14_network.node[20].content_store 	decision_yes[20] 	10164
scalar tree_4_3_u08_r14_network.node[20].content_store 	decision_no[20] 	0
scalar tree_4_3_u08_r14_network.node[20].content_store 	decision_ratio[20] 	1
scalar tree_4_3_u08_r14_network.node[21].core_layer 	interests[21] 	13145
scalar tree_4_3_u08_r14_network.node[21].core_layer 	data[21] 	10080
scalar tree_4_3_u08_r14_network.node[21].content_store 	p_hit[21] 	0.23294028147585
scalar tree_4_3_u08_r14_network.node[21].content_store 	hits[21] 	3062
scalar tree_4_3_u08_r14_network.node[21].content_store 	misses[21] 	10083
scalar tree_4_3_u08_r14_network.node[21].content_store 	decision_yes[21] 	10080
scalar tree_4_3_u08_r14_network.node[21].content_store 	decision_no[21] 	0
scalar tree_4_3_u08_r14_network.node[21].content_store 	decision_ratio[21] 	1
scalar tree_4_3_u08_r14_network.node[22].core_layer 	interests[22] 	13443
scalar tree_4_3_u08_r14_network.node[22].core_layer 	data[22] 	10034
scalar tree_4_3_u08_r14_network.node[22].content_store 	p_hit[22] 	0.25358922859481
scalar tree_4_3_u08_r14_network.node[22].content_store 	hits[22] 	3409
scalar tree_4_3_u08_r14_network.node[22].content_store 	misses[22] 	10034
scalar tree_4_3_u08_r14_network.node[22].content_store 	decision_yes[22] 	10034
scalar tree_4_3_u08_r14_network.node[22].content_store 	decision_no[22] 	0
scalar tree_4_3_u08_r14_network.node[22].content_store 	decision_ratio[22] 	1
scalar tree_4_3_u08_r14_network.node[23].core_layer 	interests[23] 	14125
scalar tree_4_3_u08_r14_network.node[23].core_layer 	data[23] 	10067
scalar tree_4_3_u08_r14_network.node[23].content_store 	p_hit[23] 	0.28722123893805
scalar tree_4_3_u08_r14_network.node[23].content_store 	hits[23] 	4057
scalar tree_4_3_u08_r14_network.node[23].content_store 	misses[23] 	10068
scalar tree_4_3_u08_r14_network.node[23].content_store 	decision_yes[23] 	10067
scalar tree_4_3_u08_r14_network.node[23].content_store 	decision_no[23] 	0
scalar tree_4_3_u08_r14_network.node[23].content_store 	decision_ratio[23] 	1
scalar tree_4_3_u08_r14_network.node[24].core_layer 	interests[24] 	14601
scalar tree_4_3_u08_r14_network.node[24].core_layer 	data[24] 	10096
scalar tree_4_3_u08_r14_network.node[24].content_store 	p_hit[24] 	0.30847202246421
scalar tree_4_3_u08_r14_network.node[24].content_store 	hits[24] 	4504
scalar tree_4_3_u08_r14_network.node[24].content_store 	misses[24] 	10097
scalar tree_4_3_u08_r14_network.node[24].content_store 	decision_yes[24] 	10096
scalar tree_4_3_u08_r14_network.node[24].content_store 	decision_no[24] 	0
scalar tree_4_3_u08_r14_network.node[24].content_store 	decision_ratio[24] 	1
scalar tree_4_3_u08_r14_network.node[25].core_layer 	interests[25] 	14119
scalar tree_4_3_u08_r14_network.node[25].core_layer 	data[25] 	10147
scalar tree_4_3_u08_r14_network.node[25].content_store 	p_hit[25] 	0.28132303987535
scalar tree_4_3_u08_r14_network.node[25].content_store 	hits[25] 	3972
scalar tree_4_3_u08_r14_network.node[25].content_store 	misses[25] 	10147
scalar tree_4_3_u08_r14_network.node[25].content_store 	decision_yes[25] 	10147
scalar tree_4_3_u08_r14_network.node[25].content_store 	decision_no[25] 	0
scalar tree_4_3_u08_r14_network.node[25].content_store 	decision_ratio[25] 	1
scalar tree_4_3_u08_r14_network.node[26].core_layer 	interests[26] 	12517
scalar tree_4_3_u08_r14_network.node[26].core_layer 	data[26] 	10107
scalar tree_4_3_u08_r14_network.node[26].content_store 	p_hit[26] 	0.19245825677079
scalar tree_4_3_u08_r14_network.node[26].content_store 	hits[26] 	2409
scalar tree_4_3_u08_r14_network.node[26].content_store 	misses[26] 	10108
scalar tree_4_3_u08_r14_network.node[26].content_store 	decision_yes[26] 	10107
scalar tree_4_3_u08_r14_network.node[26].content_store 	decision_no[26] 	0
scalar tree_4_3_u08_r14_network.node[26].content_store 	decision_ratio[26] 	1
scalar tree_4_3_u08_r14_network.node[27].core_layer 	interests[27] 	14010
scalar tree_4_3_u08_r14_network.node[27].core_layer 	data[27] 	9956
scalar tree_4_3_u08_r14_network.node[27].content_store 	p_hit[27] 	0.28936473947181
scalar tree_4_3_u08_r14_network.node[27].content_store 	hits[27] 	4054
scalar tree_4_3_u08_r14_network.node[27].content_store 	misses[27] 	9956
scalar tree_4_3_u08_r14_network.node[27].content_store 	decision_yes[27] 	9956
scalar tree_4_3_u08_r14_network.node[27].content_store 	decision_no[27] 	0
scalar tree_4_3_u08_r14_network.node[27].content_store 	decision_ratio[27] 	1
scalar tree_4_3_u08_r14_network.node[28].core_layer 	interests[28] 	14513
scalar tree_4_3_u08_r14_network.node[28].core_layer 	data[28] 	10028
scalar tree_4_3_u08_r14_network.node[28].content_store 	p_hit[28] 	0.30903328050713
scalar tree_4_3_u08_r14_network.node[28].content_store 	hits[28] 	4485
scalar tree_4_3_u08_r14_network.node[28].content_store 	misses[28] 	10028
scalar tree_4_3_u08_r14_network.node[28].content_store 	decision_yes[28] 	10028
scalar tree_4_3_u08_r14_network.node[28].content_store 	decision_no[28] 	0
scalar tree_4_3_u08_r14_network.node[28].content_store 	decision_ratio[28] 	1
scalar tree_4_3_u08_r14_network.node[29].core_layer 	interests[29] 	13222
scalar tree_4_3_u08_r14_network.node[29].core_layer 	data[29] 	10205
scalar tree_4_3_u08_r14_network.node[29].content_store 	p_hit[29] 	0.22818030555135
scalar tree_4_3_u08_r14_network.node[29].content_store 	hits[29] 	3017
scalar tree_4_3_u08_r14_network.node[29].content_store 	misses[29] 	10205
scalar tree_4_3_u08_r14_network.node[29].content_store 	decision_yes[29] 	10205
scalar tree_4_3_u08_r14_network.node[29].content_store 	decision_no[29] 	0
scalar tree_4_3_u08_r14_network.node[29].content_store 	decision_ratio[29] 	1
scalar tree_4_3_u08_r14_network.node[30].core_layer 	interests[30] 	13209
scalar tree_4_3_u08_r14_network.node[30].core_layer 	data[30] 	10163
scalar tree_4_3_u08_r14_network.node[30].content_store 	p_hit[30] 	0.23060034824741
scalar tree_4_3_u08_r14_network.node[30].content_store 	hits[30] 	3046
scalar tree_4_3_u08_r14_network.node[30].content_store 	misses[30] 	10163
scalar tree_4_3_u08_r14_network.node[30].content_store 	decision_yes[30] 	10163
scalar tree_4_3_u08_r14_network.node[30].content_store 	decision_no[30] 	0
scalar tree_4_3_u08_r14_network.node[30].content_store 	decision_ratio[30] 	1
scalar tree_4_3_u08_r14_network.node[31].core_layer 	interests[31] 	13535
scalar tree_4_3_u08_r14_network.node[31].core_layer 	data[31] 	10102
scalar tree_4_3_u08_r14_network.node[31].content_store 	p_hit[31] 	0.25356483191725
scalar tree_4_3_u08_r14_network.node[31].content_store 	hits[31] 	3432
scalar tree_4_3_u08_r14_network.node[31].content_store 	misses[31] 	10103
scalar tree_4_3_u08_r14_network.node[31].content_store 	decision_yes[31] 	10102
scalar tree_4_3_u08_r14_network.node[31].content_store 	decision_no[31] 	0
scalar tree_4_3_u08_r14_network.node[31].content_store 	decision_ratio[31] 	1
scalar tree_4_3_u08_r14_network.node[32].core_layer 	interests[32] 	14069
scalar tree_4_3_u08_r14_network.node[32].core_layer 	data[32] 	10067
scalar tree_4_3_u08_r14_network.node[32].content_store 	p_hit[32] 	0.28431302864454
scalar tree_4_3_u08_r14_network.node[32].content_store 	hits[32] 	4000
scalar tree_4_3_u08_r14_network.node[32].content_store 	misses[32] 	10069
scalar tree_4_3_u08_r14_network.node[32].content_store 	decision_yes[32] 	10067
scalar tree_4_3_u08_r14_network.node[32].content_store 	decision_no[32] 	0
scalar tree_4_3_u08_r14_network.node[32].content_store 	decision_ratio[32] 	1
scalar tree_4_3_u08_r14_network.node[33].core_layer 	interests[33] 	14406
scalar tree_4_3_u08_r14_network.node[33].core_layer 	data[33] 	10084
scalar tree_4_3_u08_r14_network.node[33].content_store 	p_hit[33] 	0.30008329862557
scalar tree_4_3_u08_r14_network.node[33].content_store 	hits[33] 	4323
scalar tree_4_3_u08_r14_network.node[33].content_store 	misses[33] 	10083
scalar tree_4_3_u08_r14_network.node[33].content_store 	decision_yes[33] 	10084
scalar tree_4_3_u08_r14_network.node[33].content_store 	decision_no[33] 	0
scalar tree_4_3_u08_r14_network.node[33].content_store 	decision_ratio[33] 	1
scalar tree_4_3_u08_r14_network.node[34].core_layer 	interests[34] 	14424
scalar tree_4_3_u08_r14_network.node[34].core_layer 	data[34] 	10296
scalar tree_4_3_u08_r14_network.node[34].content_store 	p_hit[34] 	0.28618968386023
scalar tree_4_3_u08_r14_network.node[34].content_store 	hits[34] 	4128
scalar tree_4_3_u08_r14_network.node[34].content_store 	misses[34] 	10296
scalar tree_4_3_u08_r14_network.node[34].content_store 	decision_yes[34] 	10296
scalar tree_4_3_u08_r14_network.node[34].content_store 	decision_no[34] 	0
scalar tree_4_3_u08_r14_network.node[34].content_store 	decision_ratio[34] 	1
scalar tree_4_3_u08_r14_network.node[35].core_layer 	interests[35] 	12917
scalar tree_4_3_u08_r14_network.node[35].core_layer 	data[35] 	10111
scalar tree_4_3_u08_r14_network.node[35].content_store 	p_hit[35] 	0.21715568630487
scalar tree_4_3_u08_r14_network.node[35].content_store 	hits[35] 	2805
scalar tree_4_3_u08_r14_network.node[35].content_store 	misses[35] 	10112
scalar tree_4_3_u08_r14_network.node[35].content_store 	decision_yes[35] 	10111
scalar tree_4_3_u08_r14_network.node[35].content_store 	decision_no[35] 	0
scalar tree_4_3_u08_r14_network.node[35].content_store 	decision_ratio[35] 	1
scalar tree_4_3_u08_r14_network.node[36].core_layer 	interests[36] 	14116
scalar tree_4_3_u08_r14_network.node[36].core_layer 	data[36] 	10111
scalar tree_4_3_u08_r14_network.node[36].content_store 	p_hit[36] 	0.28386228393313
scalar tree_4_3_u08_r14_network.node[36].content_store 	hits[36] 	4007
scalar tree_4_3_u08_r14_network.node[36].content_store 	misses[36] 	10109
scalar tree_4_3_u08_r14_network.node[36].content_store 	decision_yes[36] 	10111
scalar tree_4_3_u08_r14_network.node[36].content_store 	decision_no[36] 	0
scalar tree_4_3_u08_r14_network.node[36].content_store 	decision_ratio[36] 	1
scalar tree_4_3_u08_r14_network.node[37].core_layer 	interests[37] 	14368
scalar tree_4_3_u08_r14_network.node[37].core_layer 	data[37] 	10071
scalar tree_4_3_u08_r14_network.node[37].content_store 	p_hit[37] 	0.29899777282851
scalar tree_4_3_u08_r14_network.node[37].content_store 	hits[37] 	4296
scalar tree_4_3_u08_r14_network.node[37].content_store 	misses[37] 	10072
scalar tree_4_3_u08_r14_network.node[37].content_store 	decision_yes[37] 	10071
scalar tree_4_3_u08_r14_network.node[37].content_store 	decision_no[37] 	0
scalar tree_4_3_u08_r14_network.node[37].content_store 	decision_ratio[37] 	1
scalar tree_4_3_u08_r14_network.node[38].core_layer 	interests[38] 	12734
scalar tree_4_3_u08_r14_network.node[38].core_layer 	data[38] 	9975
scalar tree_4_3_u08_r14_network.node[38].content_store 	p_hit[38] 	0.21650698916287
scalar tree_4_3_u08_r14_network.node[38].content_store 	hits[38] 	2757
scalar tree_4_3_u08_r14_network.node[38].content_store 	misses[38] 	9977
scalar tree_4_3_u08_r14_network.node[38].content_store 	decision_yes[38] 	9975
scalar tree_4_3_u08_r14_network.node[38].content_store 	decision_no[38] 	0
scalar tree_4_3_u08_r14_network.node[38].content_store 	decision_ratio[38] 	1
scalar tree_4_3_u08_r14_network.node[39].core_layer 	interests[39] 	12940
scalar tree_4_3_u08_r14_network.node[39].core_layer 	data[39] 	10287
scalar tree_4_3_u08_r14_network.node[39].content_store 	p_hit[39] 	0.20502318392581
scalar tree_4_3_u08_r14_network.node[39].content_store 	hits[39] 	2653
scalar tree_4_3_u08_r14_network.node[39].content_store 	misses[39] 	10287
scalar tree_4_3_u08_r14_network.node[39].content_store 	decision_yes[39] 	10287
scalar tree_4_3_u08_r14_network.node[39].content_store 	decision_no[39] 	0
scalar tree_4_3_u08_r14_network.node[39].content_store 	decision_ratio[39] 	1
scalar tree_4_3_u08_r14_network.client[13] 	hdistance[13] 	3.04158004158
scalar tree_4_3_u08_r14_network.client[13] 	downloads[13] 	12025
scalar tree_4_3_u08_r14_network.client[13] 	avg_time[13] 	0.004851899984
scalar tree_4_3_u08_r14_network.client[14] 	hdistance[14] 	3.0527066722619
scalar tree_4_3_u08_r14_network.client[14] 	downloads[14] 	11915
scalar tree_4_3_u08_r14_network.client[14] 	avg_time[14] 	0.004865372636
scalar tree_4_3_u08_r14_network.client[15] 	hdistance[15] 	2.9422060766182
scalar tree_4_3_u08_r14_network.client[15] 	downloads[15] 	12112
scalar tree_4_3_u08_r14_network.client[15] 	avg_time[15] 	0.004688788778
scalar tree_4_3_u08_r14_network.client[16] 	hdistance[16] 	2.977947341942
scalar tree_4_3_u08_r14_network.client[16] 	downloads[16] 	11926
scalar tree_4_3_u08_r14_network.client[16] 	avg_time[16] 	0.004742749987
scalar tree_4_3_u08_r14_network.client[17] 	hdistance[17] 	3.0869347989008
scalar tree_4_3_u08_r14_network.client[17] 	downloads[17] 	12009
scalar tree_4_3_u08_r14_network.client[17] 	avg_time[17] 	0.004978429847
scalar tree_4_3_u08_r14_network.client[18] 	hdistance[18] 	2.9495489475443
scalar tree_4_3_u08_r14_network.client[18] 	downloads[18] 	11972
scalar tree_4_3_u08_r14_network.client[18] 	avg_time[18] 	0.004707314073
scalar tree_4_3_u08_r14_network.client[19] 	hdistance[19] 	2.9561533399145
scalar tree_4_3_u08_r14_network.client[19] 	downloads[19] 	12156
scalar tree_4_3_u08_r14_network.client[19] 	avg_time[19] 	0.004706561149
scalar tree_4_3_u08_r14_network.client[20] 	hdistance[20] 	3.0163420270716
scalar tree_4_3_u08_r14_network.client[20] 	downloads[20] 	12116
scalar tree_4_3_u08_r14_network.client[20] 	avg_time[20] 	0.004834478557
scalar tree_4_3_u08_r14_network.client[21] 	hdistance[21] 	3.030672795654
scalar tree_4_3_u08_r14_network.client[21] 	downloads[21] 	11965
scalar tree_4_3_u08_r14_network.client[21] 	avg_time[21] 	0.004864760438
scalar tree_4_3_u08_r14_network.client[22] 	hdistance[22] 	3.0343875502008
scalar tree_4_3_u08_r14_network.client[22] 	downloads[22] 	11952
scalar tree_4_3_u08_r14_network.client[22] 	avg_time[22] 	0.004863450801
scalar tree_4_3_u08_r14_network.client[23] 	hdistance[23] 	2.9773562834225
scalar tree_4_3_u08_r14_network.client[23] 	downloads[23] 	11968
scalar tree_4_3_u08_r14_network.client[23] 	avg_time[23] 	0.004764602196
scalar tree_4_3_u08_r14_network.client[24] 	hdistance[24] 	2.9250455524267
scalar tree_4_3_u08_r14_network.client[24] 	downloads[24] 	12074
scalar tree_4_3_u08_r14_network.client[24] 	avg_time[24] 	0.004669304828
scalar tree_4_3_u08_r14_network.client[25] 	hdistance[25] 	2.9902678422891
scalar tree_4_3_u08_r14_network.client[25] 	downloads[25] 	12022
scalar tree_4_3_u08_r14_network.client[25] 	avg_time[25] 	0.004773578749
scalar tree_4_3_u08_r14_network.client[26] 	hdistance[26] 	3.1236256819136
scalar tree_4_3_u08_r14_network.client[26] 	downloads[26] 	11915
scalar tree_4_3_u08_r14_network.client[26] 	avg_time[26] 	0.004959168485
scalar tree_4_3_u08_r14_network.client[27] 	hdistance[27] 	2.9541323009594
scalar tree_4_3_u08_r14_network.client[27] 	downloads[27] 	11882
scalar tree_4_3_u08_r14_network.client[27] 	avg_time[27] 	0.004712390278
scalar tree_4_3_u08_r14_network.client[28] 	hdistance[28] 	2.9209734069242
scalar tree_4_3_u08_r14_network.client[28] 	downloads[28] 	11958
scalar tree_4_3_u08_r14_network.client[28] 	avg_time[28] 	0.004667615418
scalar tree_4_3_u08_r14_network.client[29] 	hdistance[29] 	3.0198844884488
scalar tree_4_3_u08_r14_network.client[29] 	downloads[29] 	12120
scalar tree_4_3_u08_r14_network.client[29] 	avg_time[29] 	0.004844386403
scalar tree_4_3_u08_r14_network.client[30] 	hdistance[30] 	3.0237759920471
scalar tree_4_3_u08_r14_network.client[30] 	downloads[30] 	12071
scalar tree_4_3_u08_r14_network.client[30] 	avg_time[30] 	0.004843837607
scalar tree_4_3_u08_r14_network.client[31] 	hdistance[31] 	3.0177381745503
scalar tree_4_3_u08_r14_network.client[31] 	downloads[31] 	12008
scalar tree_4_3_u08_r14_network.client[31] 	avg_time[31] 	0.004840923059
scalar tree_4_3_u08_r14_network.client[32] 	hdistance[32] 	2.9690902998827
scalar tree_4_3_u08_r14_network.client[32] 	downloads[32] 	11938
scalar tree_4_3_u08_r14_network.client[32] 	avg_time[32] 	0.004736869853
scalar tree_4_3_u08_r14_network.client[33] 	hdistance[33] 	2.9510292164675
scalar tree_4_3_u08_r14_network.client[33] 	downloads[33] 	12048
scalar tree_4_3_u08_r14_network.client[33] 	avg_time[33] 	0.004708346265
scalar tree_4_3_u08_r14_network.client[34] 	hdistance[34] 	2.9513707571802
scalar tree_4_3_u08_r14_network.client[34] 	downloads[34] 	12256
scalar tree_4_3_u08_r14_network.client[34] 	avg_time[34] 	0.004708874225
scalar tree_4_3_u08_r14_network.client[35] 	hdistance[35] 	3.0635476607456
scalar tree_4_3_u08_r14_network.client[35] 	downloads[35] 	11991
scalar tree_4_3_u08_r14_network.client[35] 	avg_time[35] 	0.004926168558
scalar tree_4_3_u08_r14_network.client[36] 	hdistance[36] 	2.957098995934
scalar tree_4_3_u08_r14_network.client[36] 	downloads[36] 	12051
scalar tree_4_3_u08_r14_network.client[36] 	avg_time[36] 	0.004708817818
scalar tree_4_3_u08_r14_network.client[37] 	hdistance[37] 	2.9515458776596
scalar tree_4_3_u08_r14_network.client[37] 	downloads[37] 	12032
scalar tree_4_3_u08_r14_network.client[37] 	avg_time[37] 	0.004695807016
scalar tree_4_3_u08_r14_network.client[38] 	hdistance[38] 	3.0448186311468
scalar tree_4_3_u08_r14_network.client[38] 	downloads[38] 	11937
scalar tree_4_3_u08_r14_network.client[38] 	avg_time[38] 	0.004848988125
scalar tree_4_3_u08_r14_network.client[39] 	hdistance[39] 	3.0825022665458
scalar tree_4_3_u08_r14_network.client[39] 	downloads[39] 	12133
scalar tree_4_3_u08_r14_network.client[39] 	avg_time[39] 	0.004914860817
