version 2
run General-161-20160819-17:33:09-23511
attr a 0.9
attr cd lce
attr configname General
attr cr lru
attr datetime 20160819-17:33:09
attr experiment General
attr fsize 1
attr inifile hw5115/scenario_A/NRR-LCE.ini
attr iterationvars "$name=tree_4_3, $un=08, $rep=2, $cd=lce, $cr=lru, $fsize=1, $a=0.9, $sl=nrr, $ttl=1000, $variance=0.05"
attr iterationvars2 "$name=tree_4_3, $un=08, $rep=2, $cd=lce, $cr=lru, $fsize=1, $a=0.9, $sl=nrr, $ttl=1000, $variance=0.05, $repetition=0"
attr measurement "$name=tree_4_3, $un=08, $rep=2, $cd=lce, $cr=lru, $fsize=1, $a=0.9, $sl=nrr, $ttl=1000, $variance=0.05"
attr name tree_4_3
attr network networks.${name}_u${un}_r${rep}_network
attr processid 23511
attr rep 2
attr repetition 0
attr replication #0
attr resultdir results
attr runnumber 161
attr seedset 2
attr sl nrr
attr ttl 1000
attr un 08
attr variance 0.05

scalar . 	a 	0.9
scalar . 	fsize 	1
scalar . 	rep 	2
scalar . 	ttl 	1000
scalar . 	un 	08
scalar . 	variance 	0.05
scalar tree_4_3_u08_r2_network.content_distribution 	repo-0 	0
scalar tree_4_3_u08_r2_network.content_distribution 	client-0 	13
scalar tree_4_3_u08_r2_network.content_distribution 	client-1 	14
scalar tree_4_3_u08_r2_network.content_distribution 	client-2 	15
scalar tree_4_3_u08_r2_network.content_distribution 	client-3 	16
scalar tree_4_3_u08_r2_network.content_distribution 	client-4 	17
scalar tree_4_3_u08_r2_network.content_distribution 	client-5 	18
scalar tree_4_3_u08_r2_network.content_distribution 	client-6 	19
scalar tree_4_3_u08_r2_network.content_distribution 	client-7 	20
scalar tree_4_3_u08_r2_network.content_distribution 	client-8 	21
scalar tree_4_3_u08_r2_network.content_distribution 	client-9 	22
scalar tree_4_3_u08_r2_network.content_distribution 	client-10 	23
scalar tree_4_3_u08_r2_network.content_distribution 	client-11 	24
scalar tree_4_3_u08_r2_network.content_distribution 	client-12 	25
scalar tree_4_3_u08_r2_network.content_distribution 	client-13 	26
scalar tree_4_3_u08_r2_network.content_distribution 	client-14 	27
scalar tree_4_3_u08_r2_network.content_distribution 	client-15 	28
scalar tree_4_3_u08_r2_network.content_distribution 	client-16 	29
scalar tree_4_3_u08_r2_network.content_distribution 	client-17 	30
scalar tree_4_3_u08_r2_network.content_distribution 	client-18 	31
scalar tree_4_3_u08_r2_network.content_distribution 	client-19 	32
scalar tree_4_3_u08_r2_network.content_distribution 	client-20 	33
scalar tree_4_3_u08_r2_network.content_distribution 	client-21 	34
scalar tree_4_3_u08_r2_network.content_distribution 	client-22 	35
scalar tree_4_3_u08_r2_network.content_distribution 	client-23 	36
scalar tree_4_3_u08_r2_network.content_distribution 	client-24 	37
scalar tree_4_3_u08_r2_network.content_distribution 	client-25 	38
scalar tree_4_3_u08_r2_network.content_distribution 	client-26 	39
scalar tree_4_3_u08_r2_network.content_distribution 	repo-0_card 	100000
scalar tree_4_3_u08_r2_network.content_distribution 	repo-0_price 	0
scalar tree_4_3_u08_r2_network.statistics 	stabilization_time 	475.8
scalar tree_4_3_u08_r2_network.statistics 	p_hit 	0.20514933653392
scalar tree_4_3_u08_r2_network.statistics 	interests 	27452.025
scalar tree_4_3_u08_r2_network.statistics 	data 	19355.55
scalar tree_4_3_u08_r2_network.statistics 	hdistance 	2.9968276309947
scalar tree_4_3_u08_r2_network.statistics 	avg_time 	0.004780918431
scalar tree_4_3_u08_r2_network.statistics 	downloads 	323845
scalar tree_4_3_u08_r2_network.statistics 	total_cost 	0
scalar tree_4_3_u08_r2_network.statistics 	total_replicas 	100000
scalar tree_4_3_u08_r2_network.statistics 	inner_hit 	0.39357099847149
scalar tree_4_3_u08_r2_network.node[0].core_layer 	interests[0] 	196822
scalar tree_4_3_u08_r2_network.node[0].core_layer 	repo_load[0] 	196389
scalar tree_4_3_u08_r2_network.node[0].core_layer 	data[0] 	0
scalar tree_4_3_u08_r2_network.node[0].core_layer 	repo_int[0] 	196389
scalar tree_4_3_u08_r2_network.node[0].content_store 	p_hit[0] 	0.0021999573218441
scalar tree_4_3_u08_r2_network.node[0].content_store 	hits[0] 	433
scalar tree_4_3_u08_r2_network.node[0].content_store 	misses[0] 	196389
scalar tree_4_3_u08_r2_network.node[0].content_store 	decision_yes[0] 	196389
scalar tree_4_3_u08_r2_network.node[0].content_store 	decision_no[0] 	0
scalar tree_4_3_u08_r2_network.node[0].content_store 	decision_ratio[0] 	1
scalar tree_4_3_u08_r2_network.node[1].core_layer 	interests[1] 	154426
scalar tree_4_3_u08_r2_network.node[1].core_layer 	data[1] 	153069
scalar tree_4_3_u08_r2_network.node[1].content_store 	p_hit[1] 	0.0087485268024814
scalar tree_4_3_u08_r2_network.node[1].content_store 	hits[1] 	1351
scalar tree_4_3_u08_r2_network.node[1].content_store 	misses[1] 	153075
scalar tree_4_3_u08_r2_network.node[1].content_store 	decision_yes[1] 	153043
scalar tree_4_3_u08_r2_network.node[1].content_store 	decision_no[1] 	0
scalar tree_4_3_u08_r2_network.node[1].content_store 	decision_ratio[1] 	1
scalar tree_4_3_u08_r2_network.node[2].core_layer 	interests[2] 	58025
scalar tree_4_3_u08_r2_network.node[2].core_layer 	data[2] 	57193
scalar tree_4_3_u08_r2_network.node[2].content_store 	p_hit[2] 	0.014321413183972
scalar tree_4_3_u08_r2_network.node[2].content_store 	hits[2] 	831
scalar tree_4_3_u08_r2_network.node[2].content_store 	misses[2] 	57194
scalar tree_4_3_u08_r2_network.node[2].content_store 	decision_yes[2] 	57186
scalar tree_4_3_u08_r2_network.node[2].content_store 	decision_no[2] 	0
scalar tree_4_3_u08_r2_network.node[2].content_store 	decision_ratio[2] 	1
scalar tree_4_3_u08_r2_network.node[3].core_layer 	interests[3] 	19121
scalar tree_4_3_u08_r2_network.node[3].core_layer 	data[3] 	15609
scalar tree_4_3_u08_r2_network.node[3].content_store 	p_hit[3] 	0.18362010355107
scalar tree_4_3_u08_r2_network.node[3].content_store 	hits[3] 	3511
scalar tree_4_3_u08_r2_network.node[3].content_store 	misses[3] 	15610
scalar tree_4_3_u08_r2_network.node[3].content_store 	decision_yes[3] 	15609
scalar tree_4_3_u08_r2_network.node[3].content_store 	decision_no[3] 	0
scalar tree_4_3_u08_r2_network.node[3].content_store 	decision_ratio[3] 	1
scalar tree_4_3_u08_r2_network.node[4].core_layer 	interests[4] 	49733
scalar tree_4_3_u08_r2_network.node[4].core_layer 	data[4] 	47807
scalar tree_4_3_u08_r2_network.node[4].content_store 	p_hit[4] 	0.038666478997849
scalar tree_4_3_u08_r2_network.node[4].content_store 	hits[4] 	1923
scalar tree_4_3_u08_r2_network.node[4].content_store 	misses[4] 	47810
scalar tree_4_3_u08_r2_network.node[4].content_store 	decision_yes[4] 	47802
scalar tree_4_3_u08_r2_network.node[4].content_store 	decision_no[4] 	0
scalar tree_4_3_u08_r2_network.node[4].content_store 	decision_ratio[4] 	1
scalar tree_4_3_u08_r2_network.node[5].core_layer 	interests[5] 	30320
scalar tree_4_3_u08_r2_network.node[5].core_layer 	data[5] 	28541
scalar tree_4_3_u08_r2_network.node[5].content_store 	p_hit[5] 	0.058641160949868
scalar tree_4_3_u08_r2_network.node[5].content_store 	hits[5] 	1778
scalar tree_4_3_u08_r2_network.node[5].content_store 	misses[5] 	28542
scalar tree_4_3_u08_r2_network.node[5].content_store 	decision_yes[5] 	28538
scalar tree_4_3_u08_r2_network.node[5].content_store 	decision_no[5] 	0
scalar tree_4_3_u08_r2_network.node[5].content_store 	decision_ratio[5] 	1
scalar tree_4_3_u08_r2_network.node[6].core_layer 	interests[6] 	20750
scalar tree_4_3_u08_r2_network.node[6].core_layer 	data[6] 	15485
scalar tree_4_3_u08_r2_network.node[6].content_store 	p_hit[6] 	0.25368674698795
scalar tree_4_3_u08_r2_network.node[6].content_store 	hits[6] 	5264
scalar tree_4_3_u08_r2_network.node[6].content_store 	misses[6] 	15486
scalar tree_4_3_u08_r2_network.node[6].content_store 	decision_yes[6] 	15484
scalar tree_4_3_u08_r2_network.node[6].content_store 	decision_no[6] 	0
scalar tree_4_3_u08_r2_network.node[6].content_store 	decision_ratio[6] 	1
scalar tree_4_3_u08_r2_network.node[7].core_layer 	interests[7] 	53546
scalar tree_4_3_u08_r2_network.node[7].core_layer 	data[7] 	50678
scalar tree_4_3_u08_r2_network.node[7].content_store 	p_hit[7] 	0.053505397228551
scalar tree_4_3_u08_r2_network.node[7].content_store 	hits[7] 	2865
scalar tree_4_3_u08_r2_network.node[7].content_store 	misses[7] 	50681
scalar tree_4_3_u08_r2_network.node[7].content_store 	decision_yes[7] 	50674
scalar tree_4_3_u08_r2_network.node[7].content_store 	decision_no[7] 	0
scalar tree_4_3_u08_r2_network.node[7].content_store 	decision_ratio[7] 	1
scalar tree_4_3_u08_r2_network.node[8].core_layer 	interests[8] 	29814
scalar tree_4_3_u08_r2_network.node[8].core_layer 	data[8] 	28081
scalar tree_4_3_u08_r2_network.node[8].content_store 	p_hit[8] 	0.058059971825317
scalar tree_4_3_u08_r2_network.node[8].content_store 	hits[8] 	1731
scalar tree_4_3_u08_r2_network.node[8].content_store 	misses[8] 	28083
scalar tree_4_3_u08_r2_network.node[8].content_store 	decision_yes[8] 	28077
scalar tree_4_3_u08_r2_network.node[8].content_store 	decision_no[8] 	0
scalar tree_4_3_u08_r2_network.node[8].content_store 	decision_ratio[8] 	1
scalar tree_4_3_u08_r2_network.node[9].core_layer 	interests[9] 	17177
scalar tree_4_3_u08_r2_network.node[9].core_layer 	data[9] 	13824
scalar tree_4_3_u08_r2_network.node[9].content_store 	p_hit[9] 	0.19514467019852
scalar tree_4_3_u08_r2_network.node[9].content_store 	hits[9] 	3352
scalar tree_4_3_u08_r2_network.node[9].content_store 	misses[9] 	13825
scalar tree_4_3_u08_r2_network.node[9].content_store 	decision_yes[9] 	13821
scalar tree_4_3_u08_r2_network.node[9].content_store 	decision_no[9] 	0
scalar tree_4_3_u08_r2_network.node[9].content_store 	decision_ratio[9] 	1
scalar tree_4_3_u08_r2_network.node[10].core_layer 	interests[10] 	53048
scalar tree_4_3_u08_r2_network.node[10].core_layer 	data[10] 	50229
scalar tree_4_3_u08_r2_network.node[10].content_store 	p_hit[10] 	0.053046297692656
scalar tree_4_3_u08_r2_network.node[10].content_store 	hits[10] 	2814
scalar tree_4_3_u08_r2_network.node[10].content_store 	misses[10] 	50234
scalar tree_4_3_u08_r2_network.node[10].content_store 	decision_yes[10] 	50224
scalar tree_4_3_u08_r2_network.node[10].content_store 	decision_no[10] 	0
scalar tree_4_3_u08_r2_network.node[10].content_store 	decision_ratio[10] 	1
scalar tree_4_3_u08_r2_network.node[11].core_layer 	interests[11] 	33652
scalar tree_4_3_u08_r2_network.node[11].core_layer 	data[11] 	31022
scalar tree_4_3_u08_r2_network.node[11].content_store 	p_hit[11] 	0.07812314275526
scalar tree_4_3_u08_r2_network.node[11].content_store 	hits[11] 	2629
scalar tree_4_3_u08_r2_network.node[11].content_store 	misses[11] 	31023
scalar tree_4_3_u08_r2_network.node[11].content_store 	decision_yes[11] 	31015
scalar tree_4_3_u08_r2_network.node[11].content_store 	decision_no[11] 	0
scalar tree_4_3_u08_r2_network.node[11].content_store 	decision_ratio[11] 	1
scalar tree_4_3_u08_r2_network.node[12].core_layer 	interests[12] 	13080
scalar tree_4_3_u08_r2_network.node[12].core_layer 	data[12] 	10614
scalar tree_4_3_u08_r2_network.node[12].content_store 	p_hit[12] 	0.18845565749235
scalar tree_4_3_u08_r2_network.node[12].content_store 	hits[12] 	2465
scalar tree_4_3_u08_r2_network.node[12].content_store 	misses[12] 	10615
scalar tree_4_3_u08_r2_network.node[12].content_store 	decision_yes[12] 	10614
scalar tree_4_3_u08_r2_network.node[12].content_store 	decision_no[12] 	0
scalar tree_4_3_u08_r2_network.node[12].content_store 	decision_ratio[12] 	1
scalar tree_4_3_u08_r2_network.node[13].core_layer 	interests[13] 	13385
scalar tree_4_3_u08_r2_network.node[13].core_layer 	data[13] 	10109
scalar tree_4_3_u08_r2_network.node[13].content_store 	p_hit[13] 	0.24475158759806
scalar tree_4_3_u08_r2_network.node[13].content_store 	hits[13] 	3276
scalar tree_4_3_u08_r2_network.node[13].content_store 	misses[13] 	10109
scalar tree_4_3_u08_r2_network.node[13].content_store 	decision_yes[13] 	10109
scalar tree_4_3_u08_r2_network.node[13].content_store 	decision_no[13] 	0
scalar tree_4_3_u08_r2_network.node[13].content_store 	decision_ratio[13] 	1
scalar tree_4_3_u08_r2_network.node[14].core_layer 	interests[14] 	13407
scalar tree_4_3_u08_r2_network.node[14].core_layer 	data[14] 	10233
scalar tree_4_3_u08_r2_network.node[14].content_store 	p_hit[14] 	0.236518236742
scalar tree_4_3_u08_r2_network.node[14].content_store 	hits[14] 	3171
scalar tree_4_3_u08_r2_network.node[14].content_store 	misses[14] 	10236
scalar tree_4_3_u08_r2_network.node[14].content_store 	decision_yes[14] 	10233
scalar tree_4_3_u08_r2_network.node[14].content_store 	decision_no[14] 	0
scalar tree_4_3_u08_r2_network.node[14].content_store 	decision_ratio[14] 	1
scalar tree_4_3_u08_r2_network.node[15].core_layer 	interests[15] 	14311
scalar tree_4_3_u08_r2_network.node[15].core_layer 	data[15] 	10035
scalar tree_4_3_u08_r2_network.node[15].content_store 	p_hit[15] 	0.29886101600168
scalar tree_4_3_u08_r2_network.node[15].content_store 	hits[15] 	4277
scalar tree_4_3_u08_r2_network.node[15].content_store 	misses[15] 	10034
scalar tree_4_3_u08_r2_network.node[15].content_store 	decision_yes[15] 	10035
scalar tree_4_3_u08_r2_network.node[15].content_store 	decision_no[15] 	0
scalar tree_4_3_u08_r2_network.node[15].content_store 	decision_ratio[15] 	1
scalar tree_4_3_u08_r2_network.node[16].core_layer 	interests[16] 	13799
scalar tree_4_3_u08_r2_network.node[16].core_layer 	data[16] 	9836
scalar tree_4_3_u08_r2_network.node[16].content_store 	p_hit[16] 	0.28712225523589
scalar tree_4_3_u08_r2_network.node[16].content_store 	hits[16] 	3962
scalar tree_4_3_u08_r2_network.node[16].content_store 	misses[16] 	9837
scalar tree_4_3_u08_r2_network.node[16].content_store 	decision_yes[16] 	9836
scalar tree_4_3_u08_r2_network.node[16].content_store 	decision_no[16] 	0
scalar tree_4_3_u08_r2_network.node[16].content_store 	decision_ratio[16] 	1
scalar tree_4_3_u08_r2_network.node[17].core_layer 	interests[17] 	13019
scalar tree_4_3_u08_r2_network.node[17].core_layer 	data[17] 	10322
scalar tree_4_3_u08_r2_network.node[17].content_store 	p_hit[17] 	0.2070051463246
scalar tree_4_3_u08_r2_network.node[17].content_store 	hits[17] 	2695
scalar tree_4_3_u08_r2_network.node[17].content_store 	misses[17] 	10324
scalar tree_4_3_u08_r2_network.node[17].content_store 	decision_yes[17] 	10322
scalar tree_4_3_u08_r2_network.node[17].content_store 	decision_no[17] 	0
scalar tree_4_3_u08_r2_network.node[17].content_store 	decision_ratio[17] 	1
scalar tree_4_3_u08_r2_network.node[18].core_layer 	interests[18] 	14066
scalar tree_4_3_u08_r2_network.node[18].core_layer 	data[18] 	10200
scalar tree_4_3_u08_r2_network.node[18].content_store 	p_hit[18] 	0.27491824257074
scalar tree_4_3_u08_r2_network.node[18].content_store 	hits[18] 	3867
scalar tree_4_3_u08_r2_network.node[18].content_store 	misses[18] 	10199
scalar tree_4_3_u08_r2_network.node[18].content_store 	decision_yes[18] 	10200
scalar tree_4_3_u08_r2_network.node[18].content_store 	decision_no[18] 	0
scalar tree_4_3_u08_r2_network.node[18].content_store 	decision_ratio[18] 	1
scalar tree_4_3_u08_r2_network.node[19].core_layer 	interests[19] 	14394
scalar tree_4_3_u08_r2_network.node[19].core_layer 	data[19] 	10096
scalar tree_4_3_u08_r2_network.node[19].content_store 	p_hit[19] 	0.29859663748784
scalar tree_4_3_u08_r2_network.node[19].content_store 	hits[19] 	4298
scalar tree_4_3_u08_r2_network.node[19].content_store 	misses[19] 	10096
scalar tree_4_3_u08_r2_network.node[19].content_store 	decision_yes[19] 	10096
scalar tree_4_3_u08_r2_network.node[19].content_store 	decision_no[19] 	0
scalar tree_4_3_u08_r2_network.node[19].content_store 	decision_ratio[19] 	1
scalar tree_4_3_u08_r2_network.node[20].core_layer 	interests[20] 	13963
scalar tree_4_3_u08_r2_network.node[20].core_layer 	data[20] 	10251
scalar tree_4_3_u08_r2_network.node[20].content_store 	p_hit[20] 	0.26584544868581
scalar tree_4_3_u08_r2_network.node[20].content_store 	hits[20] 	3712
scalar tree_4_3_u08_r2_network.node[20].content_store 	misses[20] 	10251
scalar tree_4_3_u08_r2_network.node[20].content_store 	decision_yes[20] 	10251
scalar tree_4_3_u08_r2_network.node[20].content_store 	decision_no[20] 	0
scalar tree_4_3_u08_r2_network.node[20].content_store 	decision_ratio[20] 	1
scalar tree_4_3_u08_r2_network.node[21].core_layer 	interests[21] 	12614
scalar tree_4_3_u08_r2_network.node[21].core_layer 	data[21] 	10126
scalar tree_4_3_u08_r2_network.node[21].content_store 	p_hit[21] 	0.19724116061519
scalar tree_4_3_u08_r2_network.node[21].content_store 	hits[21] 	2488
scalar tree_4_3_u08_r2_network.node[21].content_store 	misses[21] 	10126
scalar tree_4_3_u08_r2_network.node[21].content_store 	decision_yes[21] 	10126
scalar tree_4_3_u08_r2_network.node[21].content_store 	decision_no[21] 	0
scalar tree_4_3_u08_r2_network.node[21].content_store 	decision_ratio[21] 	1
scalar tree_4_3_u08_r2_network.node[22].core_layer 	interests[22] 	13592
scalar tree_4_3_u08_r2_network.node[22].core_layer 	data[22] 	10018
scalar tree_4_3_u08_r2_network.node[22].content_store 	p_hit[22] 	0.26294879340789
scalar tree_4_3_u08_r2_network.node[22].content_store 	hits[22] 	3574
scalar tree_4_3_u08_r2_network.node[22].content_store 	misses[22] 	10018
scalar tree_4_3_u08_r2_network.node[22].content_store 	decision_yes[22] 	10018
scalar tree_4_3_u08_r2_network.node[22].content_store 	decision_no[22] 	0
scalar tree_4_3_u08_r2_network.node[22].content_store 	decision_ratio[22] 	1
scalar tree_4_3_u08_r2_network.node[23].core_layer 	interests[23] 	14337
scalar tree_4_3_u08_r2_network.node[23].core_layer 	data[23] 	9910
scalar tree_4_3_u08_r2_network.node[23].content_store 	p_hit[23] 	0.30878147450652
scalar tree_4_3_u08_r2_network.node[23].content_store 	hits[23] 	4427
scalar tree_4_3_u08_r2_network.node[23].content_store 	misses[23] 	9910
scalar tree_4_3_u08_r2_network.node[23].content_store 	decision_yes[23] 	9910
scalar tree_4_3_u08_r2_network.node[23].content_store 	decision_no[23] 	0
scalar tree_4_3_u08_r2_network.node[23].content_store 	decision_ratio[23] 	1
scalar tree_4_3_u08_r2_network.node[24].core_layer 	interests[24] 	13645
scalar tree_4_3_u08_r2_network.node[24].core_layer 	data[24] 	10118
scalar tree_4_3_u08_r2_network.node[24].content_store 	p_hit[24] 	0.2584829607915
scalar tree_4_3_u08_r2_network.node[24].content_store 	hits[24] 	3527
scalar tree_4_3_u08_r2_network.node[24].content_store 	misses[24] 	10118
scalar tree_4_3_u08_r2_network.node[24].content_store 	decision_yes[24] 	10118
scalar tree_4_3_u08_r2_network.node[24].content_store 	decision_no[24] 	0
scalar tree_4_3_u08_r2_network.node[24].content_store 	decision_ratio[24] 	1
scalar tree_4_3_u08_r2_network.node[25].core_layer 	interests[25] 	14385
scalar tree_4_3_u08_r2_network.node[25].core_layer 	data[25] 	10030
scalar tree_4_3_u08_r2_network.node[25].content_store 	p_hit[25] 	0.3027459158846
scalar tree_4_3_u08_r2_network.node[25].content_store 	hits[25] 	4355
scalar tree_4_3_u08_r2_network.node[25].content_store 	misses[25] 	10030
scalar tree_4_3_u08_r2_network.node[25].content_store 	decision_yes[25] 	10030
scalar tree_4_3_u08_r2_network.node[25].content_store 	decision_no[25] 	0
scalar tree_4_3_u08_r2_network.node[25].content_store 	decision_ratio[25] 	1
scalar tree_4_3_u08_r2_network.node[26].core_layer 	interests[26] 	12769
scalar tree_4_3_u08_r2_network.node[26].core_layer 	data[26] 	10141
scalar tree_4_3_u08_r2_network.node[26].content_store 	p_hit[26] 	0.20565431905396
scalar tree_4_3_u08_r2_network.node[26].content_store 	hits[26] 	2626
scalar tree_4_3_u08_r2_network.node[26].content_store 	misses[26] 	10143
scalar tree_4_3_u08_r2_network.node[26].content_store 	decision_yes[26] 	10141
scalar tree_4_3_u08_r2_network.node[26].content_store 	decision_no[26] 	0
scalar tree_4_3_u08_r2_network.node[26].content_store 	decision_ratio[26] 	1
scalar tree_4_3_u08_r2_network.node[27].core_layer 	interests[27] 	13799
scalar tree_4_3_u08_r2_network.node[27].core_layer 	data[27] 	10022
scalar tree_4_3_u08_r2_network.node[27].content_store 	p_hit[27] 	0.27371548662947
scalar tree_4_3_u08_r2_network.node[27].content_store 	hits[27] 	3777
scalar tree_4_3_u08_r2_network.node[27].content_store 	misses[27] 	10022
scalar tree_4_3_u08_r2_network.node[27].content_store 	decision_yes[27] 	10022
scalar tree_4_3_u08_r2_network.node[27].content_store 	decision_no[27] 	0
scalar tree_4_3_u08_r2_network.node[27].content_store 	decision_ratio[27] 	1
scalar tree_4_3_u08_r2_network.node[28].core_layer 	interests[28] 	14629
scalar tree_4_3_u08_r2_network.node[28].core_layer 	data[28] 	10124
scalar tree_4_3_u08_r2_network.node[28].content_store 	p_hit[28] 	0.30801831977579
scalar tree_4_3_u08_r2_network.node[28].content_store 	hits[28] 	4506
scalar tree_4_3_u08_r2_network.node[28].content_store 	misses[28] 	10123
scalar tree_4_3_u08_r2_network.node[28].content_store 	decision_yes[28] 	10124
scalar tree_4_3_u08_r2_network.node[28].content_store 	decision_no[28] 	0
scalar tree_4_3_u08_r2_network.node[28].content_store 	decision_ratio[28] 	1
scalar tree_4_3_u08_r2_network.node[29].core_layer 	interests[29] 	13627
scalar tree_4_3_u08_r2_network.node[29].core_layer 	data[29] 	10033
scalar tree_4_3_u08_r2_network.node[29].content_store 	p_hit[29] 	0.26374110222353
scalar tree_4_3_u08_r2_network.node[29].content_store 	hits[29] 	3594
scalar tree_4_3_u08_r2_network.node[29].content_store 	misses[29] 	10033
scalar tree_4_3_u08_r2_network.node[29].content_store 	decision_yes[29] 	10033
scalar tree_4_3_u08_r2_network.node[29].content_store 	decision_no[29] 	0
scalar tree_4_3_u08_r2_network.node[29].content_store 	decision_ratio[29] 	1
scalar tree_4_3_u08_r2_network.node[30].core_layer 	interests[30] 	12566
scalar tree_4_3_u08_r2_network.node[30].core_layer 	data[30] 	10265
scalar tree_4_3_u08_r2_network.node[30].content_store 	p_hit[30] 	0.18311316250199
scalar tree_4_3_u08_r2_network.node[30].content_store 	hits[30] 	2301
scalar tree_4_3_u08_r2_network.node[30].content_store 	misses[30] 	10265
scalar tree_4_3_u08_r2_network.node[30].content_store 	decision_yes[30] 	10265
scalar tree_4_3_u08_r2_network.node[30].content_store 	decision_no[30] 	0
scalar tree_4_3_u08_r2_network.node[30].content_store 	decision_ratio[30] 	1
scalar tree_4_3_u08_r2_network.node[31].core_layer 	interests[31] 	13476
scalar tree_4_3_u08_r2_network.node[31].core_layer 	data[31] 	10081
scalar tree_4_3_u08_r2_network.node[31].content_store 	p_hit[31] 	0.25185514989611
scalar tree_4_3_u08_r2_network.node[31].content_store 	hits[31] 	3394
scalar tree_4_3_u08_r2_network.node[31].content_store 	misses[31] 	10082
scalar tree_4_3_u08_r2_network.node[31].content_store 	decision_yes[31] 	10081
scalar tree_4_3_u08_r2_network.node[31].content_store 	decision_no[31] 	0
scalar tree_4_3_u08_r2_network.node[31].content_store 	decision_ratio[31] 	1
scalar tree_4_3_u08_r2_network.node[32].core_layer 	interests[32] 	14222
scalar tree_4_3_u08_r2_network.node[32].core_layer 	data[32] 	9867
scalar tree_4_3_u08_r2_network.node[32].content_store 	p_hit[32] 	0.30621572212066
scalar tree_4_3_u08_r2_network.node[32].content_store 	hits[32] 	4355
scalar tree_4_3_u08_r2_network.node[32].content_store 	misses[32] 	9867
scalar tree_4_3_u08_r2_network.node[32].content_store 	decision_yes[32] 	9867
scalar tree_4_3_u08_r2_network.node[32].content_store 	decision_no[32] 	0
scalar tree_4_3_u08_r2_network.node[32].content_store 	decision_ratio[32] 	1
scalar tree_4_3_u08_r2_network.node[33].core_layer 	interests[33] 	13558
scalar tree_4_3_u08_r2_network.node[33].core_layer 	data[33] 	10097
scalar tree_4_3_u08_r2_network.node[33].content_store 	p_hit[33] 	0.25527363917982
scalar tree_4_3_u08_r2_network.node[33].content_store 	hits[33] 	3461
scalar tree_4_3_u08_r2_network.node[33].content_store 	misses[33] 	10097
scalar tree_4_3_u08_r2_network.node[33].content_store 	decision_yes[33] 	10097
scalar tree_4_3_u08_r2_network.node[33].content_store 	decision_no[33] 	0
scalar tree_4_3_u08_r2_network.node[33].content_store 	decision_ratio[33] 	1
scalar tree_4_3_u08_r2_network.node[34].core_layer 	interests[34] 	14431
scalar tree_4_3_u08_r2_network.node[34].core_layer 	data[34] 	10007
scalar tree_4_3_u08_r2_network.node[34].content_store 	p_hit[34] 	0.30649296653039
scalar tree_4_3_u08_r2_network.node[34].content_store 	hits[34] 	4423
scalar tree_4_3_u08_r2_network.node[34].content_store 	misses[34] 	10008
scalar tree_4_3_u08_r2_network.node[34].content_store 	decision_yes[34] 	10007
scalar tree_4_3_u08_r2_network.node[34].content_store 	decision_no[34] 	0
scalar tree_4_3_u08_r2_network.node[34].content_store 	decision_ratio[34] 	1
scalar tree_4_3_u08_r2_network.node[35].core_layer 	interests[35] 	12958
scalar tree_4_3_u08_r2_network.node[35].core_layer 	data[35] 	10032
scalar tree_4_3_u08_r2_network.node[35].content_store 	p_hit[35] 	0.2258064516129
scalar tree_4_3_u08_r2_network.node[35].content_store 	hits[35] 	2926
scalar tree_4_3_u08_r2_network.node[35].content_store 	misses[35] 	10032
scalar tree_4_3_u08_r2_network.node[35].content_store 	decision_yes[35] 	10032
scalar tree_4_3_u08_r2_network.node[35].content_store 	decision_no[35] 	0
scalar tree_4_3_u08_r2_network.node[35].content_store 	decision_ratio[35] 	1
scalar tree_4_3_u08_r2_network.node[36].core_layer 	interests[36] 	13673
scalar tree_4_3_u08_r2_network.node[36].core_layer 	data[36] 	10110
scalar tree_4_3_u08_r2_network.node[36].content_store 	p_hit[36] 	0.26058655744899
scalar tree_4_3_u08_r2_network.node[36].content_store 	hits[36] 	3563
scalar tree_4_3_u08_r2_network.node[36].content_store 	misses[36] 	10110
scalar tree_4_3_u08_r2_network.node[36].content_store 	decision_yes[36] 	10110
scalar tree_4_3_u08_r2_network.node[36].content_store 	decision_no[36] 	0
scalar tree_4_3_u08_r2_network.node[36].content_store 	decision_ratio[36] 	1
scalar tree_4_3_u08_r2_network.node[37].core_layer 	interests[37] 	14343
scalar tree_4_3_u08_r2_network.node[37].core_layer 	data[37] 	10121
scalar tree_4_3_u08_r2_network.node[37].content_store 	p_hit[37] 	0.29415045666876
scalar tree_4_3_u08_r2_network.node[37].content_store 	hits[37] 	4219
scalar tree_4_3_u08_r2_network.node[37].content_store 	misses[37] 	10124
scalar tree_4_3_u08_r2_network.node[37].content_store 	decision_yes[37] 	10121
scalar tree_4_3_u08_r2_network.node[37].content_store 	decision_no[37] 	0
scalar tree_4_3_u08_r2_network.node[37].content_store 	decision_ratio[37] 	1
scalar tree_4_3_u08_r2_network.node[38].core_layer 	interests[38] 	13475
scalar tree_4_3_u08_r2_network.node[38].core_layer 	data[38] 	9868
scalar tree_4_3_u08_r2_network.node[38].content_store 	p_hit[38] 	0.26760667903525
scalar tree_4_3_u08_r2_network.node[38].content_store 	hits[38] 	3606
scalar tree_4_3_u08_r2_network.node[38].content_store 	misses[38] 	9869
scalar tree_4_3_u08_r2_network.node[38].content_store 	decision_yes[38] 	9868
scalar tree_4_3_u08_r2_network.node[38].content_store 	decision_no[38] 	0
scalar tree_4_3_u08_r2_network.node[38].content_store 	decision_ratio[38] 	1
scalar tree_4_3_u08_r2_network.node[39].core_layer 	interests[39] 	12124
scalar tree_4_3_u08_r2_network.node[39].core_layer 	data[39] 	10018
scalar tree_4_3_u08_r2_network.node[39].content_store 	p_hit[39] 	0.173705047839
scalar tree_4_3_u08_r2_network.node[39].content_store 	hits[39] 	2106
scalar tree_4_3_u08_r2_network.node[39].content_store 	misses[39] 	10018
scalar tree_4_3_u08_r2_network.node[39].content_store 	decision_yes[39] 	10018
scalar tree_4_3_u08_r2_network.node[39].content_store 	decision_no[39] 	0
scalar tree_4_3_u08_r2_network.node[39].content_store 	decision_ratio[39] 	1
scalar tree_4_3_u08_r2_network.client[13] 	hdistance[13] 	3.0331432349781
scalar tree_4_3_u08_r2_network.client[13] 	downloads[13] 	12099
scalar tree_4_3_u08_r2_network.client[13] 	avg_time[13] 	0.004837712675
scalar tree_4_3_u08_r2_network.client[14] 	hdistance[14] 	3.0581290481266
scalar tree_4_3_u08_r2_network.client[14] 	downloads[14] 	12197
scalar tree_4_3_u08_r2_network.client[14] 	avg_time[14] 	0.004881250394
scalar tree_4_3_u08_r2_network.client[15] 	hdistance[15] 	2.9368526561978
scalar tree_4_3_u08_r2_network.client[15] 	downloads[15] 	11972
scalar tree_4_3_u08_r2_network.client[15] 	avg_time[15] 	0.004681420327
scalar tree_4_3_u08_r2_network.client[16] 	hdistance[16] 	3.0004256405891
scalar tree_4_3_u08_r2_network.client[16] 	downloads[16] 	11747
scalar tree_4_3_u08_r2_network.client[16] 	avg_time[16] 	0.004745971871
scalar tree_4_3_u08_r2_network.client[17] 	hdistance[17] 	3.1178203240059
scalar tree_4_3_u08_r2_network.client[17] 	downloads[17] 	12222
scalar tree_4_3_u08_r2_network.client[17] 	avg_time[17] 	0.004977372322
scalar tree_4_3_u08_r2_network.client[18] 	hdistance[18] 	2.9291738311635
scalar tree_4_3_u08_r2_network.client[18] 	downloads[18] 	12213
scalar tree_4_3_u08_r2_network.client[18] 	avg_time[18] 	0.004680187252
scalar tree_4_3_u08_r2_network.client[19] 	hdistance[19] 	2.9343853820598
scalar tree_4_3_u08_r2_network.client[19] 	downloads[19] 	12040
scalar tree_4_3_u08_r2_network.client[19] 	avg_time[19] 	0.00467164219
scalar tree_4_3_u08_r2_network.client[20] 	hdistance[20] 	2.9573576534385
scalar tree_4_3_u08_r2_network.client[20] 	downloads[20] 	12171
scalar tree_4_3_u08_r2_network.client[20] 	avg_time[20] 	0.004722738859
scalar tree_4_3_u08_r2_network.client[21] 	hdistance[21] 	3.0402414486922
scalar tree_4_3_u08_r2_network.client[21] 	downloads[21] 	11928
scalar tree_4_3_u08_r2_network.client[21] 	avg_time[21] 	0.004871400011
scalar tree_4_3_u08_r2_network.client[22] 	hdistance[22] 	3.0260263621862
scalar tree_4_3_u08_r2_network.client[22] 	downloads[22] 	11911
scalar tree_4_3_u08_r2_network.client[22] 	avg_time[22] 	0.004864911805
scalar tree_4_3_u08_r2_network.client[23] 	hdistance[23] 	2.9590129299417
scalar tree_4_3_u08_r2_network.client[23] 	downloads[23] 	11833
scalar tree_4_3_u08_r2_network.client[23] 	avg_time[23] 	0.004710721307
scalar tree_4_3_u08_r2_network.client[24] 	hdistance[24] 	3.0428070761015
scalar tree_4_3_u08_r2_network.client[24] 	downloads[24] 	11984
scalar tree_4_3_u08_r2_network.client[24] 	avg_time[24] 	0.00488944803
scalar tree_4_3_u08_r2_network.client[25] 	hdistance[25] 	2.9510833333333
scalar tree_4_3_u08_r2_network.client[25] 	downloads[25] 	12000
scalar tree_4_3_u08_r2_network.client[25] 	avg_time[25] 	0.004713801014
scalar tree_4_3_u08_r2_network.client[26] 	hdistance[26] 	3.1157647847211
scalar tree_4_3_u08_r2_network.client[26] 	downloads[26] 	11938
scalar tree_4_3_u08_r2_network.client[26] 	avg_time[26] 	0.004920492858
scalar tree_4_3_u08_r2_network.client[27] 	hdistance[27] 	2.9381477489429
scalar tree_4_3_u08_r2_network.client[27] 	downloads[27] 	12061
scalar tree_4_3_u08_r2_network.client[27] 	avg_time[27] 	0.004672080529
scalar tree_4_3_u08_r2_network.client[28] 	hdistance[28] 	2.9361207897793
scalar tree_4_3_u08_r2_network.client[28] 	downloads[28] 	12054
scalar tree_4_3_u08_r2_network.client[28] 	avg_time[28] 	0.004676287029
scalar tree_4_3_u08_r2_network.client[29] 	hdistance[29] 	2.9768300873069
scalar tree_4_3_u08_r2_network.client[29] 	downloads[29] 	11912
scalar tree_4_3_u08_r2_network.client[29] 	avg_time[29] 	0.004732703519
scalar tree_4_3_u08_r2_network.client[30] 	hdistance[30] 	3.0742332809788
scalar tree_4_3_u08_r2_network.client[30] 	downloads[30] 	12097
scalar tree_4_3_u08_r2_network.client[30] 	avg_time[30] 	0.004918571847
scalar tree_4_3_u08_r2_network.client[31] 	hdistance[31] 	3.0199966532798
scalar tree_4_3_u08_r2_network.client[31] 	downloads[31] 	11952
scalar tree_4_3_u08_r2_network.client[31] 	avg_time[31] 	0.004845713217
scalar tree_4_3_u08_r2_network.client[32] 	hdistance[32] 	2.9401101228293
scalar tree_4_3_u08_r2_network.client[32] 	downloads[32] 	11805
scalar tree_4_3_u08_r2_network.client[32] 	avg_time[32] 	0.004692081439
scalar tree_4_3_u08_r2_network.client[33] 	hdistance[33] 	3.0171566586158
scalar tree_4_3_u08_r2_network.client[33] 	downloads[33] 	12007
scalar tree_4_3_u08_r2_network.client[33] 	avg_time[33] 	0.004842338976
scalar tree_4_3_u08_r2_network.client[34] 	hdistance[34] 	2.9382943143813
scalar tree_4_3_u08_r2_network.client[34] 	downloads[34] 	11960
scalar tree_4_3_u08_r2_network.client[34] 	avg_time[34] 	0.004680264565
scalar tree_4_3_u08_r2_network.client[35] 	hdistance[35] 	3.0475709354214
scalar tree_4_3_u08_r2_network.client[35] 	downloads[35] 	11877
scalar tree_4_3_u08_r2_network.client[35] 	avg_time[35] 	0.004877627936
scalar tree_4_3_u08_r2_network.client[36] 	hdistance[36] 	2.9729999169228
scalar tree_4_3_u08_r2_network.client[36] 	downloads[36] 	12037
scalar tree_4_3_u08_r2_network.client[36] 	avg_time[36] 	0.00472978892
scalar tree_4_3_u08_r2_network.client[37] 	hdistance[37] 	2.9462232150244
scalar tree_4_3_u08_r2_network.client[37] 	downloads[37] 	12087
scalar tree_4_3_u08_r2_network.client[37] 	avg_time[37] 	0.004695522769
scalar tree_4_3_u08_r2_network.client[38] 	hdistance[38] 	2.9409425501311
scalar tree_4_3_u08_r2_network.client[38] 	downloads[38] 	11819
scalar tree_4_3_u08_r2_network.client[38] 	avg_time[38] 	0.004673328628
scalar tree_4_3_u08_r2_network.client[39] 	hdistance[39] 	3.0634960577084
scalar tree_4_3_u08_r2_network.client[39] 	downloads[39] 	11922
scalar tree_4_3_u08_r2_network.client[39] 	avg_time[39] 	0.004879417354
