version 2
run General-17-20160818-21:13:32-32642
attr a 0.9
attr cd lce
attr configname General
attr cr lru
attr datetime 20160818-21:13:32
attr experiment General
attr fsize 1
attr inifile hw5115/scenario_A/Edge.ini
attr iterationvars "$name=tree_4_3, $un=00, $rep=18, $scenario=Edge, $cd=lce, $cr=lru, $fsize=1, $a=0.9, $sl=spr, $ttl=1000, $variance=0.05"
attr iterationvars2 "$name=tree_4_3, $un=00, $rep=18, $scenario=Edge, $cd=lce, $cr=lru, $fsize=1, $a=0.9, $sl=spr, $ttl=1000, $variance=0.05, $repetition=0"
attr measurement "$name=tree_4_3, $un=00, $rep=18, $scenario=Edge, $cd=lce, $cr=lru, $fsize=1, $a=0.9, $sl=spr, $ttl=1000, $variance=0.05"
attr name tree_4_3
attr network networks.${name}_u${un}_r${rep}_network
attr processid 32642
attr rep 18
attr repetition 0
attr replication #0
attr resultdir results
attr runnumber 17
attr scenario Edge
attr seedset 18
attr sl spr
attr ttl 1000
attr un 00
attr variance 0.05

scalar . 	a 	0.9
scalar . 	fsize 	1
scalar . 	rep 	18
scalar . 	ttl 	1000
scalar . 	un 	00
scalar . 	variance 	0.05
scalar tree_4_3_u00_r18_network.content_distribution 	repo-0 	0
scalar tree_4_3_u00_r18_network.content_distribution 	client-0 	13
scalar tree_4_3_u00_r18_network.content_distribution 	client-1 	14
scalar tree_4_3_u00_r18_network.content_distribution 	client-2 	15
scalar tree_4_3_u00_r18_network.content_distribution 	client-3 	16
scalar tree_4_3_u00_r18_network.content_distribution 	client-4 	17
scalar tree_4_3_u00_r18_network.content_distribution 	client-5 	18
scalar tree_4_3_u00_r18_network.content_distribution 	client-6 	19
scalar tree_4_3_u00_r18_network.content_distribution 	client-7 	20
scalar tree_4_3_u00_r18_network.content_distribution 	client-8 	21
scalar tree_4_3_u00_r18_network.content_distribution 	client-9 	22
scalar tree_4_3_u00_r18_network.content_distribution 	client-10 	23
scalar tree_4_3_u00_r18_network.content_distribution 	client-11 	24
scalar tree_4_3_u00_r18_network.content_distribution 	client-12 	25
scalar tree_4_3_u00_r18_network.content_distribution 	client-13 	26
scalar tree_4_3_u00_r18_network.content_distribution 	client-14 	27
scalar tree_4_3_u00_r18_network.content_distribution 	client-15 	28
scalar tree_4_3_u00_r18_network.content_distribution 	client-16 	29
scalar tree_4_3_u00_r18_network.content_distribution 	client-17 	30
scalar tree_4_3_u00_r18_network.content_distribution 	client-18 	31
scalar tree_4_3_u00_r18_network.content_distribution 	client-19 	32
scalar tree_4_3_u00_r18_network.content_distribution 	client-20 	33
scalar tree_4_3_u00_r18_network.content_distribution 	client-21 	34
scalar tree_4_3_u00_r18_network.content_distribution 	client-22 	35
scalar tree_4_3_u00_r18_network.content_distribution 	client-23 	36
scalar tree_4_3_u00_r18_network.content_distribution 	client-24 	37
scalar tree_4_3_u00_r18_network.content_distribution 	client-25 	38
scalar tree_4_3_u00_r18_network.content_distribution 	client-26 	39
scalar tree_4_3_u00_r18_network.content_distribution 	repo-0_card 	100000
scalar tree_4_3_u00_r18_network.content_distribution 	repo-0_price 	0
scalar tree_4_3_u00_r18_network.statistics 	stabilization_time 	422.3
scalar tree_4_3_u00_r18_network.statistics 	p_hit 	0.10545584642797
scalar tree_4_3_u00_r18_network.statistics 	interests 	28625.45
scalar tree_4_3_u00_r18_network.statistics 	data 	20518.35
scalar tree_4_3_u00_r18_network.statistics 	hdistance 	3.3750199917473
scalar tree_4_3_u00_r18_network.statistics 	avg_time 	0.00506218929
scalar tree_4_3_u00_r18_network.statistics 	downloads 	324258
scalar tree_4_3_u00_r18_network.statistics 	total_cost 	0
scalar tree_4_3_u00_r18_network.statistics 	total_replicas 	100000
scalar tree_4_3_u00_r18_network.statistics 	inner_hit 	0.1563693108574
scalar tree_4_3_u00_r18_network.node[0].core_layer 	interests[0] 	273554
scalar tree_4_3_u00_r18_network.node[0].core_layer 	repo_load[0] 	273554
scalar tree_4_3_u00_r18_network.node[0].core_layer 	data[0] 	0
scalar tree_4_3_u00_r18_network.node[0].core_layer 	repo_int[0] 	273554
scalar tree_4_3_u00_r18_network.node[0].content_store 	p_hit[0] 	0
scalar tree_4_3_u00_r18_network.node[0].content_store 	hits[0] 	0
scalar tree_4_3_u00_r18_network.node[0].content_store 	misses[0] 	273554
scalar tree_4_3_u00_r18_network.node[0].content_store 	decision_yes[0] 	0
scalar tree_4_3_u00_r18_network.node[0].content_store 	decision_no[0] 	273554
scalar tree_4_3_u00_r18_network.node[0].content_store 	decision_ratio[0] 	0
scalar tree_4_3_u00_r18_network.node[1].core_layer 	interests[1] 	91190
scalar tree_4_3_u00_r18_network.node[1].core_layer 	data[1] 	91182
scalar tree_4_3_u00_r18_network.node[1].content_store 	p_hit[1] 	0
scalar tree_4_3_u00_r18_network.node[1].content_store 	hits[1] 	0
scalar tree_4_3_u00_r18_network.node[1].content_store 	misses[1] 	91190
scalar tree_4_3_u00_r18_network.node[1].content_store 	decision_yes[1] 	0
scalar tree_4_3_u00_r18_network.node[1].content_store 	decision_no[1] 	91182
scalar tree_4_3_u00_r18_network.node[1].content_store 	decision_ratio[1] 	0
scalar tree_4_3_u00_r18_network.node[2].core_layer 	interests[2] 	91440
scalar tree_4_3_u00_r18_network.node[2].core_layer 	data[2] 	91429
scalar tree_4_3_u00_r18_network.node[2].content_store 	p_hit[2] 	0
scalar tree_4_3_u00_r18_network.node[2].content_store 	hits[2] 	0
scalar tree_4_3_u00_r18_network.node[2].content_store 	misses[2] 	91440
scalar tree_4_3_u00_r18_network.node[2].content_store 	decision_yes[2] 	0
scalar tree_4_3_u00_r18_network.node[2].content_store 	decision_no[2] 	91429
scalar tree_4_3_u00_r18_network.node[2].content_store 	decision_ratio[2] 	0
scalar tree_4_3_u00_r18_network.node[3].core_layer 	interests[3] 	90952
scalar tree_4_3_u00_r18_network.node[3].core_layer 	data[3] 	90943
scalar tree_4_3_u00_r18_network.node[3].content_store 	p_hit[3] 	0
scalar tree_4_3_u00_r18_network.node[3].content_store 	hits[3] 	0
scalar tree_4_3_u00_r18_network.node[3].content_store 	misses[3] 	90952
scalar tree_4_3_u00_r18_network.node[3].content_store 	decision_yes[3] 	0
scalar tree_4_3_u00_r18_network.node[3].content_store 	decision_no[3] 	90943
scalar tree_4_3_u00_r18_network.node[3].content_store 	decision_ratio[3] 	0
scalar tree_4_3_u00_r18_network.node[4].core_layer 	interests[4] 	30239
scalar tree_4_3_u00_r18_network.node[4].core_layer 	data[4] 	30237
scalar tree_4_3_u00_r18_network.node[4].content_store 	p_hit[4] 	0
scalar tree_4_3_u00_r18_network.node[4].content_store 	hits[4] 	0
scalar tree_4_3_u00_r18_network.node[4].content_store 	misses[4] 	30239
scalar tree_4_3_u00_r18_network.node[4].content_store 	decision_yes[4] 	0
scalar tree_4_3_u00_r18_network.node[4].content_store 	decision_no[4] 	30237
scalar tree_4_3_u00_r18_network.node[4].content_store 	decision_ratio[4] 	0
scalar tree_4_3_u00_r18_network.node[5].core_layer 	interests[5] 	30331
scalar tree_4_3_u00_r18_network.node[5].core_layer 	data[5] 	30328
scalar tree_4_3_u00_r18_network.node[5].content_store 	p_hit[5] 	0
scalar tree_4_3_u00_r18_network.node[5].content_store 	hits[5] 	0
scalar tree_4_3_u00_r18_network.node[5].content_store 	misses[5] 	30331
scalar tree_4_3_u00_r18_network.node[5].content_store 	decision_yes[5] 	0
scalar tree_4_3_u00_r18_network.node[5].content_store 	decision_no[5] 	30328
scalar tree_4_3_u00_r18_network.node[5].content_store 	decision_ratio[5] 	0
scalar tree_4_3_u00_r18_network.node[6].core_layer 	interests[6] 	30626
scalar tree_4_3_u00_r18_network.node[6].core_layer 	data[6] 	30625
scalar tree_4_3_u00_r18_network.node[6].content_store 	p_hit[6] 	0
scalar tree_4_3_u00_r18_network.node[6].content_store 	hits[6] 	0
scalar tree_4_3_u00_r18_network.node[6].content_store 	misses[6] 	30626
scalar tree_4_3_u00_r18_network.node[6].content_store 	decision_yes[6] 	0
scalar tree_4_3_u00_r18_network.node[6].content_store 	decision_no[6] 	30625
scalar tree_4_3_u00_r18_network.node[6].content_store 	decision_ratio[6] 	0
scalar tree_4_3_u00_r18_network.node[7].core_layer 	interests[7] 	30389
scalar tree_4_3_u00_r18_network.node[7].core_layer 	data[7] 	30388
scalar tree_4_3_u00_r18_network.node[7].content_store 	p_hit[7] 	0
scalar tree_4_3_u00_r18_network.node[7].content_store 	hits[7] 	0
scalar tree_4_3_u00_r18_network.node[7].content_store 	misses[7] 	30389
scalar tree_4_3_u00_r18_network.node[7].content_store 	decision_yes[7] 	0
scalar tree_4_3_u00_r18_network.node[7].content_store 	decision_no[7] 	30388
scalar tree_4_3_u00_r18_network.node[7].content_store 	decision_ratio[7] 	0
scalar tree_4_3_u00_r18_network.node[8].core_layer 	interests[8] 	30503
scalar tree_4_3_u00_r18_network.node[8].core_layer 	data[8] 	30501
scalar tree_4_3_u00_r18_network.node[8].content_store 	p_hit[8] 	0
scalar tree_4_3_u00_r18_network.node[8].content_store 	hits[8] 	0
scalar tree_4_3_u00_r18_network.node[8].content_store 	misses[8] 	30503
scalar tree_4_3_u00_r18_network.node[8].content_store 	decision_yes[8] 	0
scalar tree_4_3_u00_r18_network.node[8].content_store 	decision_no[8] 	30501
scalar tree_4_3_u00_r18_network.node[8].content_store 	decision_ratio[8] 	0
scalar tree_4_3_u00_r18_network.node[9].core_layer 	interests[9] 	30552
scalar tree_4_3_u00_r18_network.node[9].core_layer 	data[9] 	30551
scalar tree_4_3_u00_r18_network.node[9].content_store 	p_hit[9] 	0
scalar tree_4_3_u00_r18_network.node[9].content_store 	hits[9] 	0
scalar tree_4_3_u00_r18_network.node[9].content_store 	misses[9] 	30552
scalar tree_4_3_u00_r18_network.node[9].content_store 	decision_yes[9] 	0
scalar tree_4_3_u00_r18_network.node[9].content_store 	decision_no[9] 	30551
scalar tree_4_3_u00_r18_network.node[9].content_store 	decision_ratio[9] 	0
scalar tree_4_3_u00_r18_network.node[10].core_layer 	interests[10] 	30180
scalar tree_4_3_u00_r18_network.node[10].core_layer 	data[10] 	30179
scalar tree_4_3_u00_r18_network.node[10].content_store 	p_hit[10] 	0
scalar tree_4_3_u00_r18_network.node[10].content_store 	hits[10] 	0
scalar tree_4_3_u00_r18_network.node[10].content_store 	misses[10] 	30180
scalar tree_4_3_u00_r18_network.node[10].content_store 	decision_yes[10] 	0
scalar tree_4_3_u00_r18_network.node[10].content_store 	decision_no[10] 	30179
scalar tree_4_3_u00_r18_network.node[10].content_store 	decision_ratio[10] 	0
scalar tree_4_3_u00_r18_network.node[11].core_layer 	interests[11] 	30350
scalar tree_4_3_u00_r18_network.node[11].core_layer 	data[11] 	30351
scalar tree_4_3_u00_r18_network.node[11].content_store 	p_hit[11] 	0
scalar tree_4_3_u00_r18_network.node[11].content_store 	hits[11] 	0
scalar tree_4_3_u00_r18_network.node[11].content_store 	misses[11] 	30350
scalar tree_4_3_u00_r18_network.node[11].content_store 	decision_yes[11] 	0
scalar tree_4_3_u00_r18_network.node[11].content_store 	decision_no[11] 	30351
scalar tree_4_3_u00_r18_network.node[11].content_store 	decision_ratio[11] 	0
scalar tree_4_3_u00_r18_network.node[12].core_layer 	interests[12] 	30425
scalar tree_4_3_u00_r18_network.node[12].core_layer 	data[12] 	30423
scalar tree_4_3_u00_r18_network.node[12].content_store 	p_hit[12] 	0
scalar tree_4_3_u00_r18_network.node[12].content_store 	hits[12] 	0
scalar tree_4_3_u00_r18_network.node[12].content_store 	misses[12] 	30425
scalar tree_4_3_u00_r18_network.node[12].content_store 	decision_yes[12] 	0
scalar tree_4_3_u00_r18_network.node[12].content_store 	decision_no[12] 	30423
scalar tree_4_3_u00_r18_network.node[12].content_store 	decision_ratio[12] 	0
scalar tree_4_3_u00_r18_network.node[13].core_layer 	interests[13] 	12015
scalar tree_4_3_u00_r18_network.node[13].core_layer 	data[13] 	10165
scalar tree_4_3_u00_r18_network.node[13].content_store 	p_hit[13] 	0.15397419891802
scalar tree_4_3_u00_r18_network.node[13].content_store 	hits[13] 	1850
scalar tree_4_3_u00_r18_network.node[13].content_store 	misses[13] 	10165
scalar tree_4_3_u00_r18_network.node[13].content_store 	decision_yes[13] 	10165
scalar tree_4_3_u00_r18_network.node[13].content_store 	decision_no[13] 	0
scalar tree_4_3_u00_r18_network.node[13].content_store 	decision_ratio[13] 	1
scalar tree_4_3_u00_r18_network.node[14].core_layer 	interests[14] 	11961
scalar tree_4_3_u00_r18_network.node[14].core_layer 	data[14] 	10005
scalar tree_4_3_u00_r18_network.node[14].content_store 	p_hit[14] 	0.16336426720174
scalar tree_4_3_u00_r18_network.node[14].content_store 	hits[14] 	1954
scalar tree_4_3_u00_r18_network.node[14].content_store 	misses[14] 	10007
scalar tree_4_3_u00_r18_network.node[14].content_store 	decision_yes[14] 	10005
scalar tree_4_3_u00_r18_network.node[14].content_store 	decision_no[14] 	0
scalar tree_4_3_u00_r18_network.node[14].content_store 	decision_ratio[14] 	1
scalar tree_4_3_u00_r18_network.node[15].core_layer 	interests[15] 	11890
scalar tree_4_3_u00_r18_network.node[15].core_layer 	data[15] 	10069
scalar tree_4_3_u00_r18_network.node[15].content_store 	p_hit[15] 	0.15315391084945
scalar tree_4_3_u00_r18_network.node[15].content_store 	hits[15] 	1821
scalar tree_4_3_u00_r18_network.node[15].content_store 	misses[15] 	10069
scalar tree_4_3_u00_r18_network.node[15].content_store 	decision_yes[15] 	10069
scalar tree_4_3_u00_r18_network.node[15].content_store 	decision_no[15] 	0
scalar tree_4_3_u00_r18_network.node[15].content_store 	decision_ratio[15] 	1
scalar tree_4_3_u00_r18_network.node[16].core_layer 	interests[16] 	11935
scalar tree_4_3_u00_r18_network.node[16].core_layer 	data[16] 	10025
scalar tree_4_3_u00_r18_network.node[16].content_store 	p_hit[16] 	0.15994972769166
scalar tree_4_3_u00_r18_network.node[16].content_store 	hits[16] 	1909
scalar tree_4_3_u00_r18_network.node[16].content_store 	misses[16] 	10026
scalar tree_4_3_u00_r18_network.node[16].content_store 	decision_yes[16] 	10025
scalar tree_4_3_u00_r18_network.node[16].content_store 	decision_no[16] 	0
scalar tree_4_3_u00_r18_network.node[16].content_store 	decision_ratio[16] 	1
scalar tree_4_3_u00_r18_network.node[17].core_layer 	interests[17] 	12019
scalar tree_4_3_u00_r18_network.node[17].core_layer 	data[17] 	10062
scalar tree_4_3_u00_r18_network.node[17].content_store 	p_hit[17] 	0.16274232465263
scalar tree_4_3_u00_r18_network.node[17].content_store 	hits[17] 	1956
scalar tree_4_3_u00_r18_network.node[17].content_store 	misses[17] 	10063
scalar tree_4_3_u00_r18_network.node[17].content_store 	decision_yes[17] 	10062
scalar tree_4_3_u00_r18_network.node[17].content_store 	decision_no[17] 	0
scalar tree_4_3_u00_r18_network.node[17].content_store 	decision_ratio[17] 	1
scalar tree_4_3_u00_r18_network.node[18].core_layer 	interests[18] 	12132
scalar tree_4_3_u00_r18_network.node[18].core_layer 	data[18] 	10245
scalar tree_4_3_u00_r18_network.node[18].content_store 	p_hit[18] 	0.15537421694692
scalar tree_4_3_u00_r18_network.node[18].content_store 	hits[18] 	1885
scalar tree_4_3_u00_r18_network.node[18].content_store 	misses[18] 	10247
scalar tree_4_3_u00_r18_network.node[18].content_store 	decision_yes[18] 	10245
scalar tree_4_3_u00_r18_network.node[18].content_store 	decision_no[18] 	0
scalar tree_4_3_u00_r18_network.node[18].content_store 	decision_ratio[18] 	1
scalar tree_4_3_u00_r18_network.node[19].core_layer 	interests[19] 	12084
scalar tree_4_3_u00_r18_network.node[19].core_layer 	data[19] 	10188
scalar tree_4_3_u00_r18_network.node[19].content_store 	p_hit[19] 	0.15690168818272
scalar tree_4_3_u00_r18_network.node[19].content_store 	hits[19] 	1896
scalar tree_4_3_u00_r18_network.node[19].content_store 	misses[19] 	10188
scalar tree_4_3_u00_r18_network.node[19].content_store 	decision_yes[19] 	10188
scalar tree_4_3_u00_r18_network.node[19].content_store 	decision_no[19] 	0
scalar tree_4_3_u00_r18_network.node[19].content_store 	decision_ratio[19] 	1
scalar tree_4_3_u00_r18_network.node[20].core_layer 	interests[20] 	12119
scalar tree_4_3_u00_r18_network.node[20].core_layer 	data[20] 	10252
scalar tree_4_3_u00_r18_network.node[20].content_store 	p_hit[20] 	0.15405561514976
scalar tree_4_3_u00_r18_network.node[20].content_store 	hits[20] 	1867
scalar tree_4_3_u00_r18_network.node[20].content_store 	misses[20] 	10252
scalar tree_4_3_u00_r18_network.node[20].content_store 	decision_yes[20] 	10252
scalar tree_4_3_u00_r18_network.node[20].content_store 	decision_no[20] 	0
scalar tree_4_3_u00_r18_network.node[20].content_store 	decision_ratio[20] 	1
scalar tree_4_3_u00_r18_network.node[21].core_layer 	interests[21] 	12033
scalar tree_4_3_u00_r18_network.node[21].core_layer 	data[21] 	10186
scalar tree_4_3_u00_r18_network.node[21].content_store 	p_hit[21] 	0.15341145184077
scalar tree_4_3_u00_r18_network.node[21].content_store 	hits[21] 	1846
scalar tree_4_3_u00_r18_network.node[21].content_store 	misses[21] 	10187
scalar tree_4_3_u00_r18_network.node[21].content_store 	decision_yes[21] 	10186
scalar tree_4_3_u00_r18_network.node[21].content_store 	decision_no[21] 	0
scalar tree_4_3_u00_r18_network.node[21].content_store 	decision_ratio[21] 	1
scalar tree_4_3_u00_r18_network.node[22].core_layer 	interests[22] 	12001
scalar tree_4_3_u00_r18_network.node[22].core_layer 	data[22] 	10157
scalar tree_4_3_u00_r18_network.node[22].content_store 	p_hit[22] 	0.15357053578868
scalar tree_4_3_u00_r18_network.node[22].content_store 	hits[22] 	1843
scalar tree_4_3_u00_r18_network.node[22].content_store 	misses[22] 	10158
scalar tree_4_3_u00_r18_network.node[22].content_store 	decision_yes[22] 	10157
scalar tree_4_3_u00_r18_network.node[22].content_store 	decision_no[22] 	0
scalar tree_4_3_u00_r18_network.node[22].content_store 	decision_ratio[22] 	1
scalar tree_4_3_u00_r18_network.node[23].core_layer 	interests[23] 	12056
scalar tree_4_3_u00_r18_network.node[23].core_layer 	data[23] 	10112
scalar tree_4_3_u00_r18_network.node[23].content_store 	p_hit[23] 	0.16108161911082
scalar tree_4_3_u00_r18_network.node[23].content_store 	hits[23] 	1942
scalar tree_4_3_u00_r18_network.node[23].content_store 	misses[23] 	10114
scalar tree_4_3_u00_r18_network.node[23].content_store 	decision_yes[23] 	10112
scalar tree_4_3_u00_r18_network.node[23].content_store 	decision_no[23] 	0
scalar tree_4_3_u00_r18_network.node[23].content_store 	decision_ratio[23] 	1
scalar tree_4_3_u00_r18_network.node[24].core_layer 	interests[24] 	11998
scalar tree_4_3_u00_r18_network.node[24].core_layer 	data[24] 	10120
scalar tree_4_3_u00_r18_network.node[24].content_store 	p_hit[24] 	0.15619269878313
scalar tree_4_3_u00_r18_network.node[24].content_store 	hits[24] 	1874
scalar tree_4_3_u00_r18_network.node[24].content_store 	misses[24] 	10124
scalar tree_4_3_u00_r18_network.node[24].content_store 	decision_yes[24] 	10120
scalar tree_4_3_u00_r18_network.node[24].content_store 	decision_no[24] 	0
scalar tree_4_3_u00_r18_network.node[24].content_store 	decision_ratio[24] 	1
scalar tree_4_3_u00_r18_network.node[25].core_layer 	interests[25] 	11977
scalar tree_4_3_u00_r18_network.node[25].core_layer 	data[25] 	10169
scalar tree_4_3_u00_r18_network.node[25].content_store 	p_hit[25] 	0.1508725056358
scalar tree_4_3_u00_r18_network.node[25].content_store 	hits[25] 	1807
scalar tree_4_3_u00_r18_network.node[25].content_store 	misses[25] 	10170
scalar tree_4_3_u00_r18_network.node[25].content_store 	decision_yes[25] 	10169
scalar tree_4_3_u00_r18_network.node[25].content_store 	decision_no[25] 	0
scalar tree_4_3_u00_r18_network.node[25].content_store 	decision_ratio[25] 	1
scalar tree_4_3_u00_r18_network.node[26].core_layer 	interests[26] 	11998
scalar tree_4_3_u00_r18_network.node[26].core_layer 	data[26] 	10146
scalar tree_4_3_u00_r18_network.node[26].content_store 	p_hit[26] 	0.15419236539423
scalar tree_4_3_u00_r18_network.node[26].content_store 	hits[26] 	1850
scalar tree_4_3_u00_r18_network.node[26].content_store 	misses[26] 	10148
scalar tree_4_3_u00_r18_network.node[26].content_store 	decision_yes[26] 	10146
scalar tree_4_3_u00_r18_network.node[26].content_store 	decision_no[26] 	0
scalar tree_4_3_u00_r18_network.node[26].content_store 	decision_ratio[26] 	1
scalar tree_4_3_u00_r18_network.node[27].core_layer 	interests[27] 	12062
scalar tree_4_3_u00_r18_network.node[27].core_layer 	data[27] 	10188
scalar tree_4_3_u00_r18_network.node[27].content_store 	p_hit[27] 	0.15536395290997
scalar tree_4_3_u00_r18_network.node[27].content_store 	hits[27] 	1874
scalar tree_4_3_u00_r18_network.node[27].content_store 	misses[27] 	10188
scalar tree_4_3_u00_r18_network.node[27].content_store 	decision_yes[27] 	10188
scalar tree_4_3_u00_r18_network.node[27].content_store 	decision_no[27] 	0
scalar tree_4_3_u00_r18_network.node[27].content_store 	decision_ratio[27] 	1
scalar tree_4_3_u00_r18_network.node[28].core_layer 	interests[28] 	11872
scalar tree_4_3_u00_r18_network.node[28].core_layer 	data[28] 	9994
scalar tree_4_3_u00_r18_network.node[28].content_store 	p_hit[28] 	0.15810309973046
scalar tree_4_3_u00_r18_network.node[28].content_store 	hits[28] 	1877
scalar tree_4_3_u00_r18_network.node[28].content_store 	misses[28] 	9995
scalar tree_4_3_u00_r18_network.node[28].content_store 	decision_yes[28] 	9994
scalar tree_4_3_u00_r18_network.node[28].content_store 	decision_no[28] 	0
scalar tree_4_3_u00_r18_network.node[28].content_store 	decision_ratio[28] 	1
scalar tree_4_3_u00_r18_network.node[29].core_layer 	interests[29] 	12249
scalar tree_4_3_u00_r18_network.node[29].core_layer 	data[29] 	10386
scalar tree_4_3_u00_r18_network.node[29].content_store 	p_hit[29] 	0.15209404849375
scalar tree_4_3_u00_r18_network.node[29].content_store 	hits[29] 	1863
scalar tree_4_3_u00_r18_network.node[29].content_store 	misses[29] 	10386
scalar tree_4_3_u00_r18_network.node[29].content_store 	decision_yes[29] 	10386
scalar tree_4_3_u00_r18_network.node[29].content_store 	decision_no[29] 	0
scalar tree_4_3_u00_r18_network.node[29].content_store 	decision_ratio[29] 	1
scalar tree_4_3_u00_r18_network.node[30].core_layer 	interests[30] 	11970
scalar tree_4_3_u00_r18_network.node[30].core_layer 	data[30] 	10172
scalar tree_4_3_u00_r18_network.node[30].content_store 	p_hit[30] 	0.15012531328321
scalar tree_4_3_u00_r18_network.node[30].content_store 	hits[30] 	1797
scalar tree_4_3_u00_r18_network.node[30].content_store 	misses[30] 	10173
scalar tree_4_3_u00_r18_network.node[30].content_store 	decision_yes[30] 	10172
scalar tree_4_3_u00_r18_network.node[30].content_store 	decision_no[30] 	0
scalar tree_4_3_u00_r18_network.node[30].content_store 	decision_ratio[30] 	1
scalar tree_4_3_u00_r18_network.node[31].core_layer 	interests[31] 	11983
scalar tree_4_3_u00_r18_network.node[31].core_layer 	data[31] 	10150
scalar tree_4_3_u00_r18_network.node[31].content_store 	p_hit[31] 	0.15288325127264
scalar tree_4_3_u00_r18_network.node[31].content_store 	hits[31] 	1832
scalar tree_4_3_u00_r18_network.node[31].content_store 	misses[31] 	10151
scalar tree_4_3_u00_r18_network.node[31].content_store 	decision_yes[31] 	10150
scalar tree_4_3_u00_r18_network.node[31].content_store 	decision_no[31] 	0
scalar tree_4_3_u00_r18_network.node[31].content_store 	decision_ratio[31] 	1
scalar tree_4_3_u00_r18_network.node[32].core_layer 	interests[32] 	11914
scalar tree_4_3_u00_r18_network.node[32].core_layer 	data[32] 	9969
scalar tree_4_3_u00_r18_network.node[32].content_store 	p_hit[32] 	0.16308544569414
scalar tree_4_3_u00_r18_network.node[32].content_store 	hits[32] 	1943
scalar tree_4_3_u00_r18_network.node[32].content_store 	misses[32] 	9971
scalar tree_4_3_u00_r18_network.node[32].content_store 	decision_yes[32] 	9969
scalar tree_4_3_u00_r18_network.node[32].content_store 	decision_no[32] 	0
scalar tree_4_3_u00_r18_network.node[32].content_store 	decision_ratio[32] 	1
scalar tree_4_3_u00_r18_network.node[33].core_layer 	interests[33] 	11988
scalar tree_4_3_u00_r18_network.node[33].core_layer 	data[33] 	10061
scalar tree_4_3_u00_r18_network.node[33].content_store 	p_hit[33] 	0.16057724391058
scalar tree_4_3_u00_r18_network.node[33].content_store 	hits[33] 	1925
scalar tree_4_3_u00_r18_network.node[33].content_store 	misses[33] 	10063
scalar tree_4_3_u00_r18_network.node[33].content_store 	decision_yes[33] 	10061
scalar tree_4_3_u00_r18_network.node[33].content_store 	decision_no[33] 	0
scalar tree_4_3_u00_r18_network.node[33].content_store 	decision_ratio[33] 	1
scalar tree_4_3_u00_r18_network.node[34].core_layer 	interests[34] 	12044
scalar tree_4_3_u00_r18_network.node[34].core_layer 	data[34] 	10229
scalar tree_4_3_u00_r18_network.node[34].content_store 	p_hit[34] 	0.15061441381601
scalar tree_4_3_u00_r18_network.node[34].content_store 	hits[34] 	1814
scalar tree_4_3_u00_r18_network.node[34].content_store 	misses[34] 	10230
scalar tree_4_3_u00_r18_network.node[34].content_store 	decision_yes[34] 	10229
scalar tree_4_3_u00_r18_network.node[34].content_store 	decision_no[34] 	0
scalar tree_4_3_u00_r18_network.node[34].content_store 	decision_ratio[34] 	1
scalar tree_4_3_u00_r18_network.node[35].core_layer 	interests[35] 	11951
scalar tree_4_3_u00_r18_network.node[35].core_layer 	data[35] 	10127
scalar tree_4_3_u00_r18_network.node[35].content_store 	p_hit[35] 	0.15262321144674
scalar tree_4_3_u00_r18_network.node[35].content_store 	hits[35] 	1824
scalar tree_4_3_u00_r18_network.node[35].content_store 	misses[35] 	10127
scalar tree_4_3_u00_r18_network.node[35].content_store 	decision_yes[35] 	10127
scalar tree_4_3_u00_r18_network.node[35].content_store 	decision_no[35] 	0
scalar tree_4_3_u00_r18_network.node[35].content_store 	decision_ratio[35] 	1
scalar tree_4_3_u00_r18_network.node[36].core_layer 	interests[36] 	11943
scalar tree_4_3_u00_r18_network.node[36].core_layer 	data[36] 	9995
scalar tree_4_3_u00_r18_network.node[36].content_store 	p_hit[36] 	0.1631080967931
scalar tree_4_3_u00_r18_network.node[36].content_store 	hits[36] 	1948
scalar tree_4_3_u00_r18_network.node[36].content_store 	misses[36] 	9995
scalar tree_4_3_u00_r18_network.node[36].content_store 	decision_yes[36] 	9995
scalar tree_4_3_u00_r18_network.node[36].content_store 	decision_no[36] 	0
scalar tree_4_3_u00_r18_network.node[36].content_store 	decision_ratio[36] 	1
scalar tree_4_3_u00_r18_network.node[37].core_layer 	interests[37] 	12197
scalar tree_4_3_u00_r18_network.node[37].core_layer 	data[37] 	10275
scalar tree_4_3_u00_r18_network.node[37].content_store 	p_hit[37] 	0.15757973272116
scalar tree_4_3_u00_r18_network.node[37].content_store 	hits[37] 	1922
scalar tree_4_3_u00_r18_network.node[37].content_store 	misses[37] 	10275
scalar tree_4_3_u00_r18_network.node[37].content_store 	decision_yes[37] 	10275
scalar tree_4_3_u00_r18_network.node[37].content_store 	decision_no[37] 	0
scalar tree_4_3_u00_r18_network.node[37].content_store 	decision_ratio[37] 	1
scalar tree_4_3_u00_r18_network.node[38].core_layer 	interests[38] 	11883
scalar tree_4_3_u00_r18_network.node[38].core_layer 	data[38] 	9966
scalar tree_4_3_u00_r18_network.node[38].content_store 	p_hit[38] 	0.16107043675839
scalar tree_4_3_u00_r18_network.node[38].content_store 	hits[38] 	1914
scalar tree_4_3_u00_r18_network.node[38].content_store 	misses[38] 	9969
scalar tree_4_3_u00_r18_network.node[38].content_store 	decision_yes[38] 	9966
scalar tree_4_3_u00_r18_network.node[38].content_store 	decision_no[38] 	0
scalar tree_4_3_u00_r18_network.node[38].content_store 	decision_ratio[38] 	1
scalar tree_4_3_u00_r18_network.node[39].core_layer 	interests[39] 	12013
scalar tree_4_3_u00_r18_network.node[39].core_layer 	data[39] 	10184
scalar tree_4_3_u00_r18_network.node[39].content_store 	p_hit[39] 	0.15216848414218
scalar tree_4_3_u00_r18_network.node[39].content_store 	hits[39] 	1828
scalar tree_4_3_u00_r18_network.node[39].content_store 	misses[39] 	10185
scalar tree_4_3_u00_r18_network.node[39].content_store 	decision_yes[39] 	10184
scalar tree_4_3_u00_r18_network.node[39].content_store 	decision_no[39] 	0
scalar tree_4_3_u00_r18_network.node[39].content_store 	decision_ratio[39] 	1
scalar tree_4_3_u00_r18_network.client[13] 	hdistance[13] 	3.3841032043279
scalar tree_4_3_u00_r18_network.client[13] 	downloads[13] 	12015
scalar tree_4_3_u00_r18_network.client[13] 	avg_time[13] 	0.005076071745
scalar tree_4_3_u00_r18_network.client[14] 	hdistance[14] 	3.3464336482984
scalar tree_4_3_u00_r18_network.client[14] 	downloads[14] 	11959
scalar tree_4_3_u00_r18_network.client[14] 	avg_time[14] 	0.00501918511
scalar tree_4_3_u00_r18_network.client[15] 	hdistance[15] 	3.3873843566022
scalar tree_4_3_u00_r18_network.client[15] 	downloads[15] 	11890
scalar tree_4_3_u00_r18_network.client[15] 	avg_time[15] 	0.005080684592
scalar tree_4_3_u00_r18_network.client[16] 	hdistance[16] 	3.3601474777945
scalar tree_4_3_u00_r18_network.client[16] 	downloads[16] 	11934
scalar tree_4_3_u00_r18_network.client[16] 	avg_time[16] 	0.005039658567
scalar tree_4_3_u00_r18_network.client[17] 	hdistance[17] 	3.3489765351972
scalar tree_4_3_u00_r18_network.client[17] 	downloads[17] 	12018
scalar tree_4_3_u00_r18_network.client[17] 	avg_time[17] 	0.005022898472
scalar tree_4_3_u00_r18_network.client[18] 	hdistance[18] 	3.3784006595218
scalar tree_4_3_u00_r18_network.client[18] 	downloads[18] 	12130
scalar tree_4_3_u00_r18_network.client[18] 	avg_time[18] 	0.005067134395
scalar tree_4_3_u00_r18_network.client[19] 	hdistance[19] 	3.3723932472691
scalar tree_4_3_u00_r18_network.client[19] 	downloads[19] 	12084
scalar tree_4_3_u00_r18_network.client[19] 	avg_time[19] 	0.00505843382
scalar tree_4_3_u00_r18_network.client[20] 	hdistance[20] 	3.3837775394009
scalar tree_4_3_u00_r18_network.client[20] 	downloads[20] 	12119
scalar tree_4_3_u00_r18_network.client[20] 	avg_time[20] 	0.005075663288
scalar tree_4_3_u00_r18_network.client[21] 	hdistance[21] 	3.3863031914894
scalar tree_4_3_u00_r18_network.client[21] 	downloads[21] 	12032
scalar tree_4_3_u00_r18_network.client[21] 	avg_time[21] 	0.005079152052
scalar tree_4_3_u00_r18_network.client[22] 	hdistance[22] 	3.3856666666667
scalar tree_4_3_u00_r18_network.client[22] 	downloads[22] 	12000
scalar tree_4_3_u00_r18_network.client[22] 	avg_time[22] 	0.005078381561
scalar tree_4_3_u00_r18_network.client[23] 	hdistance[23] 	3.3555666168907
scalar tree_4_3_u00_r18_network.client[23] 	downloads[23] 	12054
scalar tree_4_3_u00_r18_network.client[23] 	avg_time[23] 	0.005033012696
scalar tree_4_3_u00_r18_network.client[24] 	hdistance[24] 	3.3750208437552
scalar tree_4_3_u00_r18_network.client[24] 	downloads[24] 	11994
scalar tree_4_3_u00_r18_network.client[24] 	avg_time[24] 	0.005062168048
scalar tree_4_3_u00_r18_network.client[25] 	hdistance[25] 	3.3964595858383
scalar tree_4_3_u00_r18_network.client[25] 	downloads[25] 	11976
scalar tree_4_3_u00_r18_network.client[25] 	avg_time[25] 	0.005093908094
scalar tree_4_3_u00_r18_network.client[26] 	hdistance[26] 	3.3831277092364
scalar tree_4_3_u00_r18_network.client[26] 	downloads[26] 	11996
scalar tree_4_3_u00_r18_network.client[26] 	avg_time[26] 	0.005074043074
scalar tree_4_3_u00_r18_network.client[27] 	hdistance[27] 	3.3785441883601
scalar tree_4_3_u00_r18_network.client[27] 	downloads[27] 	12062
scalar tree_4_3_u00_r18_network.client[27] 	avg_time[27] 	0.005067534486
scalar tree_4_3_u00_r18_network.client[28] 	hdistance[28] 	3.3675343273524
scalar tree_4_3_u00_r18_network.client[28] 	downloads[28] 	11871
scalar tree_4_3_u00_r18_network.client[28] 	avg_time[28] 	0.00505113956
scalar tree_4_3_u00_r18_network.client[29] 	hdistance[29] 	3.391623806025
scalar tree_4_3_u00_r18_network.client[29] 	downloads[29] 	12249
scalar tree_4_3_u00_r18_network.client[29] 	avg_time[29] 	0.00508726535
scalar tree_4_3_u00_r18_network.client[30] 	hdistance[30] 	3.3994485754867
scalar tree_4_3_u00_r18_network.client[30] 	downloads[30] 	11969
scalar tree_4_3_u00_r18_network.client[30] 	avg_time[30] 	0.005098864495
scalar tree_4_3_u00_r18_network.client[31] 	hdistance[31] 	3.3884159572692
scalar tree_4_3_u00_r18_network.client[31] 	downloads[31] 	11982
scalar tree_4_3_u00_r18_network.client[31] 	avg_time[31] 	0.005082252061
scalar tree_4_3_u00_r18_network.client[32] 	hdistance[32] 	3.3475486903962
scalar tree_4_3_u00_r18_network.client[32] 	downloads[32] 	11912
scalar tree_4_3_u00_r18_network.client[32] 	avg_time[32] 	0.005020842734
scalar tree_4_3_u00_r18_network.client[33] 	hdistance[33] 	3.3575838478225
scalar tree_4_3_u00_r18_network.client[33] 	downloads[33] 	11986
scalar tree_4_3_u00_r18_network.client[33] 	avg_time[33] 	0.005036250686
scalar tree_4_3_u00_r18_network.client[34] 	hdistance[34] 	3.3974923191896
scalar tree_4_3_u00_r18_network.client[34] 	downloads[34] 	12043
scalar tree_4_3_u00_r18_network.client[34] 	avg_time[34] 	0.005095848496
scalar tree_4_3_u00_r18_network.client[35] 	hdistance[35] 	3.389507154213
scalar tree_4_3_u00_r18_network.client[35] 	downloads[35] 	11951
scalar tree_4_3_u00_r18_network.client[35] 	avg_time[35] 	0.005083899774
scalar tree_4_3_u00_r18_network.client[36] 	hdistance[36] 	3.3475676128276
scalar tree_4_3_u00_r18_network.client[36] 	downloads[36] 	11943
scalar tree_4_3_u00_r18_network.client[36] 	avg_time[36] 	0.005021213285
scalar tree_4_3_u00_r18_network.client[37] 	hdistance[37] 	3.3696810691154
scalar tree_4_3_u00_r18_network.client[37] 	downloads[37] 	12197
scalar tree_4_3_u00_r18_network.client[37] 	avg_time[37] 	0.005054206695
scalar tree_4_3_u00_r18_network.client[38] 	hdistance[38] 	3.3555555555556
scalar tree_4_3_u00_r18_network.client[38] 	downloads[38] 	11880
scalar tree_4_3_u00_r18_network.client[38] 	avg_time[38] 	0.005032715071
scalar tree_4_3_u00_r18_network.client[39] 	hdistance[39] 	3.3912753912754
scalar tree_4_3_u00_r18_network.client[39] 	downloads[39] 	12012
scalar tree_4_3_u00_r18_network.client[39] 	avg_time[39] 	0.005086682638
