version 2
run General-3-20160818-21:02:06-32642
attr a 0.9
attr cd lce
attr configname General
attr cr lru
attr datetime 20160818-21:02:06
attr experiment General
attr fsize 1
attr inifile hw5115/scenario_A/Edge.ini
attr iterationvars "$name=tree_4_3, $un=00, $rep=4, $scenario=Edge, $cd=lce, $cr=lru, $fsize=1, $a=0.9, $sl=spr, $ttl=1000, $variance=0.05"
attr iterationvars2 "$name=tree_4_3, $un=00, $rep=4, $scenario=Edge, $cd=lce, $cr=lru, $fsize=1, $a=0.9, $sl=spr, $ttl=1000, $variance=0.05, $repetition=0"
attr measurement "$name=tree_4_3, $un=00, $rep=4, $scenario=Edge, $cd=lce, $cr=lru, $fsize=1, $a=0.9, $sl=spr, $ttl=1000, $variance=0.05"
attr name tree_4_3
attr network networks.${name}_u${un}_r${rep}_network
attr processid 32642
attr rep 4
attr repetition 0
attr replication #0
attr resultdir results
attr runnumber 3
attr scenario Edge
attr seedset 4
attr sl spr
attr ttl 1000
attr un 00
attr variance 0.05

scalar . 	a 	0.9
scalar . 	fsize 	1
scalar . 	rep 	4
scalar . 	ttl 	1000
scalar . 	un 	00
scalar . 	variance 	0.05
scalar tree_4_3_u00_r4_network.content_distribution 	repo-0 	0
scalar tree_4_3_u00_r4_network.content_distribution 	client-0 	13
scalar tree_4_3_u00_r4_network.content_distribution 	client-1 	14
scalar tree_4_3_u00_r4_network.content_distribution 	client-2 	15
scalar tree_4_3_u00_r4_network.content_distribution 	client-3 	16
scalar tree_4_3_u00_r4_network.content_distribution 	client-4 	17
scalar tree_4_3_u00_r4_network.content_distribution 	client-5 	18
scalar tree_4_3_u00_r4_network.content_distribution 	client-6 	19
scalar tree_4_3_u00_r4_network.content_distribution 	client-7 	20
scalar tree_4_3_u00_r4_network.content_distribution 	client-8 	21
scalar tree_4_3_u00_r4_network.content_distribution 	client-9 	22
scalar tree_4_3_u00_r4_network.content_distribution 	client-10 	23
scalar tree_4_3_u00_r4_network.content_distribution 	client-11 	24
scalar tree_4_3_u00_r4_network.content_distribution 	client-12 	25
scalar tree_4_3_u00_r4_network.content_distribution 	client-13 	26
scalar tree_4_3_u00_r4_network.content_distribution 	client-14 	27
scalar tree_4_3_u00_r4_network.content_distribution 	client-15 	28
scalar tree_4_3_u00_r4_network.content_distribution 	client-16 	29
scalar tree_4_3_u00_r4_network.content_distribution 	client-17 	30
scalar tree_4_3_u00_r4_network.content_distribution 	client-18 	31
scalar tree_4_3_u00_r4_network.content_distribution 	client-19 	32
scalar tree_4_3_u00_r4_network.content_distribution 	client-20 	33
scalar tree_4_3_u00_r4_network.content_distribution 	client-21 	34
scalar tree_4_3_u00_r4_network.content_distribution 	client-22 	35
scalar tree_4_3_u00_r4_network.content_distribution 	client-23 	36
scalar tree_4_3_u00_r4_network.content_distribution 	client-24 	37
scalar tree_4_3_u00_r4_network.content_distribution 	client-25 	38
scalar tree_4_3_u00_r4_network.content_distribution 	client-26 	39
scalar tree_4_3_u00_r4_network.content_distribution 	repo-0_card 	100000
scalar tree_4_3_u00_r4_network.content_distribution 	repo-0_price 	0
scalar tree_4_3_u00_r4_network.statistics 	stabilization_time 	423
scalar tree_4_3_u00_r4_network.statistics 	p_hit 	0.10529754899739
scalar tree_4_3_u00_r4_network.statistics 	interests 	28589.475
scalar tree_4_3_u00_r4_network.statistics 	data 	20494.05
scalar tree_4_3_u00_r4_network.statistics 	hdistance 	3.3759603550015
scalar tree_4_3_u00_r4_network.statistics 	avg_time 	0.005063583155
scalar tree_4_3_u00_r4_network.statistics 	downloads 	323790
scalar tree_4_3_u00_r4_network.statistics 	total_cost 	0
scalar tree_4_3_u00_r4_network.statistics 	total_replicas 	100000
scalar tree_4_3_u00_r4_network.statistics 	inner_hit 	0.1561413261682
scalar tree_4_3_u00_r4_network.node[0].core_layer 	interests[0] 	273233
scalar tree_4_3_u00_r4_network.node[0].core_layer 	repo_load[0] 	273233
scalar tree_4_3_u00_r4_network.node[0].core_layer 	data[0] 	0
scalar tree_4_3_u00_r4_network.node[0].core_layer 	repo_int[0] 	273233
scalar tree_4_3_u00_r4_network.node[0].content_store 	p_hit[0] 	0
scalar tree_4_3_u00_r4_network.node[0].content_store 	hits[0] 	0
scalar tree_4_3_u00_r4_network.node[0].content_store 	misses[0] 	273233
scalar tree_4_3_u00_r4_network.node[0].content_store 	decision_yes[0] 	0
scalar tree_4_3_u00_r4_network.node[0].content_store 	decision_no[0] 	273233
scalar tree_4_3_u00_r4_network.node[0].content_store 	decision_ratio[0] 	0
scalar tree_4_3_u00_r4_network.node[1].core_layer 	interests[1] 	91227
scalar tree_4_3_u00_r4_network.node[1].core_layer 	data[1] 	91224
scalar tree_4_3_u00_r4_network.node[1].content_store 	p_hit[1] 	0
scalar tree_4_3_u00_r4_network.node[1].content_store 	hits[1] 	0
scalar tree_4_3_u00_r4_network.node[1].content_store 	misses[1] 	91227
scalar tree_4_3_u00_r4_network.node[1].content_store 	decision_yes[1] 	0
scalar tree_4_3_u00_r4_network.node[1].content_store 	decision_no[1] 	91224
scalar tree_4_3_u00_r4_network.node[1].content_store 	decision_ratio[1] 	0
scalar tree_4_3_u00_r4_network.node[2].core_layer 	interests[2] 	91278
scalar tree_4_3_u00_r4_network.node[2].core_layer 	data[2] 	91271
scalar tree_4_3_u00_r4_network.node[2].content_store 	p_hit[2] 	0
scalar tree_4_3_u00_r4_network.node[2].content_store 	hits[2] 	0
scalar tree_4_3_u00_r4_network.node[2].content_store 	misses[2] 	91278
scalar tree_4_3_u00_r4_network.node[2].content_store 	decision_yes[2] 	0
scalar tree_4_3_u00_r4_network.node[2].content_store 	decision_no[2] 	91271
scalar tree_4_3_u00_r4_network.node[2].content_store 	decision_ratio[2] 	0
scalar tree_4_3_u00_r4_network.node[3].core_layer 	interests[3] 	90749
scalar tree_4_3_u00_r4_network.node[3].core_layer 	data[3] 	90739
scalar tree_4_3_u00_r4_network.node[3].content_store 	p_hit[3] 	0
scalar tree_4_3_u00_r4_network.node[3].content_store 	hits[3] 	0
scalar tree_4_3_u00_r4_network.node[3].content_store 	misses[3] 	90749
scalar tree_4_3_u00_r4_network.node[3].content_store 	decision_yes[3] 	0
scalar tree_4_3_u00_r4_network.node[3].content_store 	decision_no[3] 	90739
scalar tree_4_3_u00_r4_network.node[3].content_store 	decision_ratio[3] 	0
scalar tree_4_3_u00_r4_network.node[4].core_layer 	interests[4] 	30502
scalar tree_4_3_u00_r4_network.node[4].core_layer 	data[4] 	30498
scalar tree_4_3_u00_r4_network.node[4].content_store 	p_hit[4] 	0
scalar tree_4_3_u00_r4_network.node[4].content_store 	hits[4] 	0
scalar tree_4_3_u00_r4_network.node[4].content_store 	misses[4] 	30502
scalar tree_4_3_u00_r4_network.node[4].content_store 	decision_yes[4] 	0
scalar tree_4_3_u00_r4_network.node[4].content_store 	decision_no[4] 	30498
scalar tree_4_3_u00_r4_network.node[4].content_store 	decision_ratio[4] 	0
scalar tree_4_3_u00_r4_network.node[5].core_layer 	interests[5] 	30291
scalar tree_4_3_u00_r4_network.node[5].core_layer 	data[5] 	30286
scalar tree_4_3_u00_r4_network.node[5].content_store 	p_hit[5] 	0
scalar tree_4_3_u00_r4_network.node[5].content_store 	hits[5] 	0
scalar tree_4_3_u00_r4_network.node[5].content_store 	misses[5] 	30291
scalar tree_4_3_u00_r4_network.node[5].content_store 	decision_yes[5] 	0
scalar tree_4_3_u00_r4_network.node[5].content_store 	decision_no[5] 	30286
scalar tree_4_3_u00_r4_network.node[5].content_store 	decision_ratio[5] 	0
scalar tree_4_3_u00_r4_network.node[6].core_layer 	interests[6] 	30443
scalar tree_4_3_u00_r4_network.node[6].core_layer 	data[6] 	30441
scalar tree_4_3_u00_r4_network.node[6].content_store 	p_hit[6] 	0
scalar tree_4_3_u00_r4_network.node[6].content_store 	hits[6] 	0
scalar tree_4_3_u00_r4_network.node[6].content_store 	misses[6] 	30443
scalar tree_4_3_u00_r4_network.node[6].content_store 	decision_yes[6] 	0
scalar tree_4_3_u00_r4_network.node[6].content_store 	decision_no[6] 	30441
scalar tree_4_3_u00_r4_network.node[6].content_store 	decision_ratio[6] 	0
scalar tree_4_3_u00_r4_network.node[7].core_layer 	interests[7] 	30655
scalar tree_4_3_u00_r4_network.node[7].core_layer 	data[7] 	30655
scalar tree_4_3_u00_r4_network.node[7].content_store 	p_hit[7] 	0
scalar tree_4_3_u00_r4_network.node[7].content_store 	hits[7] 	0
scalar tree_4_3_u00_r4_network.node[7].content_store 	misses[7] 	30655
scalar tree_4_3_u00_r4_network.node[7].content_store 	decision_yes[7] 	0
scalar tree_4_3_u00_r4_network.node[7].content_store 	decision_no[7] 	30655
scalar tree_4_3_u00_r4_network.node[7].content_store 	decision_ratio[7] 	0
scalar tree_4_3_u00_r4_network.node[8].core_layer 	interests[8] 	30469
scalar tree_4_3_u00_r4_network.node[8].core_layer 	data[8] 	30467
scalar tree_4_3_u00_r4_network.node[8].content_store 	p_hit[8] 	0
scalar tree_4_3_u00_r4_network.node[8].content_store 	hits[8] 	0
scalar tree_4_3_u00_r4_network.node[8].content_store 	misses[8] 	30469
scalar tree_4_3_u00_r4_network.node[8].content_store 	decision_yes[8] 	0
scalar tree_4_3_u00_r4_network.node[8].content_store 	decision_no[8] 	30467
scalar tree_4_3_u00_r4_network.node[8].content_store 	decision_ratio[8] 	0
scalar tree_4_3_u00_r4_network.node[9].core_layer 	interests[9] 	30159
scalar tree_4_3_u00_r4_network.node[9].core_layer 	data[9] 	30158
scalar tree_4_3_u00_r4_network.node[9].content_store 	p_hit[9] 	0
scalar tree_4_3_u00_r4_network.node[9].content_store 	hits[9] 	0
scalar tree_4_3_u00_r4_network.node[9].content_store 	misses[9] 	30159
scalar tree_4_3_u00_r4_network.node[9].content_store 	decision_yes[9] 	0
scalar tree_4_3_u00_r4_network.node[9].content_store 	decision_no[9] 	30158
scalar tree_4_3_u00_r4_network.node[9].content_store 	decision_ratio[9] 	0
scalar tree_4_3_u00_r4_network.node[10].core_layer 	interests[10] 	30251
scalar tree_4_3_u00_r4_network.node[10].core_layer 	data[10] 	30249
scalar tree_4_3_u00_r4_network.node[10].content_store 	p_hit[10] 	0
scalar tree_4_3_u00_r4_network.node[10].content_store 	hits[10] 	0
scalar tree_4_3_u00_r4_network.node[10].content_store 	misses[10] 	30251
scalar tree_4_3_u00_r4_network.node[10].content_store 	decision_yes[10] 	0
scalar tree_4_3_u00_r4_network.node[10].content_store 	decision_no[10] 	30249
scalar tree_4_3_u00_r4_network.node[10].content_store 	decision_ratio[10] 	0
scalar tree_4_3_u00_r4_network.node[11].core_layer 	interests[11] 	30472
scalar tree_4_3_u00_r4_network.node[11].core_layer 	data[11] 	30468
scalar tree_4_3_u00_r4_network.node[11].content_store 	p_hit[11] 	0
scalar tree_4_3_u00_r4_network.node[11].content_store 	hits[11] 	0
scalar tree_4_3_u00_r4_network.node[11].content_store 	misses[11] 	30472
scalar tree_4_3_u00_r4_network.node[11].content_store 	decision_yes[11] 	0
scalar tree_4_3_u00_r4_network.node[11].content_store 	decision_no[11] 	30468
scalar tree_4_3_u00_r4_network.node[11].content_store 	decision_ratio[11] 	0
scalar tree_4_3_u00_r4_network.node[12].core_layer 	interests[12] 	30032
scalar tree_4_3_u00_r4_network.node[12].core_layer 	data[12] 	30032
scalar tree_4_3_u00_r4_network.node[12].content_store 	p_hit[12] 	0
scalar tree_4_3_u00_r4_network.node[12].content_store 	hits[12] 	0
scalar tree_4_3_u00_r4_network.node[12].content_store 	misses[12] 	30032
scalar tree_4_3_u00_r4_network.node[12].content_store 	decision_yes[12] 	0
scalar tree_4_3_u00_r4_network.node[12].content_store 	decision_no[12] 	30032
scalar tree_4_3_u00_r4_network.node[12].content_store 	decision_ratio[12] 	0
scalar tree_4_3_u00_r4_network.node[13].core_layer 	interests[13] 	12044
scalar tree_4_3_u00_r4_network.node[13].core_layer 	data[13] 	10143
scalar tree_4_3_u00_r4_network.node[13].content_store 	p_hit[13] 	0.15775489870475
scalar tree_4_3_u00_r4_network.node[13].content_store 	hits[13] 	1900
scalar tree_4_3_u00_r4_network.node[13].content_store 	misses[13] 	10144
scalar tree_4_3_u00_r4_network.node[13].content_store 	decision_yes[13] 	10143
scalar tree_4_3_u00_r4_network.node[13].content_store 	decision_no[13] 	0
scalar tree_4_3_u00_r4_network.node[13].content_store 	decision_ratio[13] 	1
scalar tree_4_3_u00_r4_network.node[14].core_layer 	interests[14] 	12156
scalar tree_4_3_u00_r4_network.node[14].core_layer 	data[14] 	10253
scalar tree_4_3_u00_r4_network.node[14].content_store 	p_hit[14] 	0.15638367884172
scalar tree_4_3_u00_r4_network.node[14].content_store 	hits[14] 	1901
scalar tree_4_3_u00_r4_network.node[14].content_store 	misses[14] 	10255
scalar tree_4_3_u00_r4_network.node[14].content_store 	decision_yes[14] 	10253
scalar tree_4_3_u00_r4_network.node[14].content_store 	decision_no[14] 	0
scalar tree_4_3_u00_r4_network.node[14].content_store 	decision_ratio[14] 	1
scalar tree_4_3_u00_r4_network.node[15].core_layer 	interests[15] 	12011
scalar tree_4_3_u00_r4_network.node[15].core_layer 	data[15] 	10105
scalar tree_4_3_u00_r4_network.node[15].content_store 	p_hit[15] 	0.15852135542419
scalar tree_4_3_u00_r4_network.node[15].content_store 	hits[15] 	1904
scalar tree_4_3_u00_r4_network.node[15].content_store 	misses[15] 	10107
scalar tree_4_3_u00_r4_network.node[15].content_store 	decision_yes[15] 	10105
scalar tree_4_3_u00_r4_network.node[15].content_store 	decision_no[15] 	0
scalar tree_4_3_u00_r4_network.node[15].content_store 	decision_ratio[15] 	1
scalar tree_4_3_u00_r4_network.node[16].core_layer 	interests[16] 	12038
scalar tree_4_3_u00_r4_network.node[16].core_layer 	data[16] 	10183
scalar tree_4_3_u00_r4_network.node[16].content_store 	p_hit[16] 	0.15401229440106
scalar tree_4_3_u00_r4_network.node[16].content_store 	hits[16] 	1854
scalar tree_4_3_u00_r4_network.node[16].content_store 	misses[16] 	10184
scalar tree_4_3_u00_r4_network.node[16].content_store 	decision_yes[16] 	10183
scalar tree_4_3_u00_r4_network.node[16].content_store 	decision_no[16] 	0
scalar tree_4_3_u00_r4_network.node[16].content_store 	decision_ratio[16] 	1
scalar tree_4_3_u00_r4_network.node[17].core_layer 	interests[17] 	11814
scalar tree_4_3_u00_r4_network.node[17].core_layer 	data[17] 	10003
scalar tree_4_3_u00_r4_network.node[17].content_store 	p_hit[17] 	0.15303876756391
scalar tree_4_3_u00_r4_network.node[17].content_store 	hits[17] 	1808
scalar tree_4_3_u00_r4_network.node[17].content_store 	misses[17] 	10006
scalar tree_4_3_u00_r4_network.node[17].content_store 	decision_yes[17] 	10003
scalar tree_4_3_u00_r4_network.node[17].content_store 	decision_no[17] 	0
scalar tree_4_3_u00_r4_network.node[17].content_store 	decision_ratio[17] 	1
scalar tree_4_3_u00_r4_network.node[18].core_layer 	interests[18] 	12051
scalar tree_4_3_u00_r4_network.node[18].core_layer 	data[18] 	10105
scalar tree_4_3_u00_r4_network.node[18].content_store 	p_hit[18] 	0.16148037507261
scalar tree_4_3_u00_r4_network.node[18].content_store 	hits[18] 	1946
scalar tree_4_3_u00_r4_network.node[18].content_store 	misses[18] 	10105
scalar tree_4_3_u00_r4_network.node[18].content_store 	decision_yes[18] 	10105
scalar tree_4_3_u00_r4_network.node[18].content_store 	decision_no[18] 	0
scalar tree_4_3_u00_r4_network.node[18].content_store 	decision_ratio[18] 	1
scalar tree_4_3_u00_r4_network.node[19].core_layer 	interests[19] 	11949
scalar tree_4_3_u00_r4_network.node[19].core_layer 	data[19] 	10088
scalar tree_4_3_u00_r4_network.node[19].content_store 	p_hit[19] 	0.15566156163696
scalar tree_4_3_u00_r4_network.node[19].content_store 	hits[19] 	1860
scalar tree_4_3_u00_r4_network.node[19].content_store 	misses[19] 	10089
scalar tree_4_3_u00_r4_network.node[19].content_store 	decision_yes[19] 	10088
scalar tree_4_3_u00_r4_network.node[19].content_store 	decision_no[19] 	0
scalar tree_4_3_u00_r4_network.node[19].content_store 	decision_ratio[19] 	1
scalar tree_4_3_u00_r4_network.node[20].core_layer 	interests[20] 	12020
scalar tree_4_3_u00_r4_network.node[20].core_layer 	data[20] 	10119
scalar tree_4_3_u00_r4_network.node[20].content_store 	p_hit[20] 	0.15798668885191
scalar tree_4_3_u00_r4_network.node[20].content_store 	hits[20] 	1899
scalar tree_4_3_u00_r4_network.node[20].content_store 	misses[20] 	10121
scalar tree_4_3_u00_r4_network.node[20].content_store 	decision_yes[20] 	10119
scalar tree_4_3_u00_r4_network.node[20].content_store 	decision_no[20] 	0
scalar tree_4_3_u00_r4_network.node[20].content_store 	decision_ratio[20] 	1
scalar tree_4_3_u00_r4_network.node[21].core_layer 	interests[21] 	12091
scalar tree_4_3_u00_r4_network.node[21].core_layer 	data[21] 	10235
scalar tree_4_3_u00_r4_network.node[21].content_store 	p_hit[21] 	0.1534198990985
scalar tree_4_3_u00_r4_network.node[21].content_store 	hits[21] 	1855
scalar tree_4_3_u00_r4_network.node[21].content_store 	misses[21] 	10236
scalar tree_4_3_u00_r4_network.node[21].content_store 	decision_yes[21] 	10235
scalar tree_4_3_u00_r4_network.node[21].content_store 	decision_no[21] 	0
scalar tree_4_3_u00_r4_network.node[21].content_store 	decision_ratio[21] 	1
scalar tree_4_3_u00_r4_network.node[22].core_layer 	interests[22] 	12165
scalar tree_4_3_u00_r4_network.node[22].core_layer 	data[22] 	10211
scalar tree_4_3_u00_r4_network.node[22].content_store 	p_hit[22] 	0.16054254007398
scalar tree_4_3_u00_r4_network.node[22].content_store 	hits[22] 	1953
scalar tree_4_3_u00_r4_network.node[22].content_store 	misses[22] 	10212
scalar tree_4_3_u00_r4_network.node[22].content_store 	decision_yes[22] 	10211
scalar tree_4_3_u00_r4_network.node[22].content_store 	decision_no[22] 	0
scalar tree_4_3_u00_r4_network.node[22].content_store 	decision_ratio[22] 	1
scalar tree_4_3_u00_r4_network.node[23].core_layer 	interests[23] 	12054
scalar tree_4_3_u00_r4_network.node[23].core_layer 	data[23] 	10235
scalar tree_4_3_u00_r4_network.node[23].content_store 	p_hit[23] 	0.15090426414468
scalar tree_4_3_u00_r4_network.node[23].content_store 	hits[23] 	1819
scalar tree_4_3_u00_r4_network.node[23].content_store 	misses[23] 	10235
scalar tree_4_3_u00_r4_network.node[23].content_store 	decision_yes[23] 	10235
scalar tree_4_3_u00_r4_network.node[23].content_store 	decision_no[23] 	0
scalar tree_4_3_u00_r4_network.node[23].content_store 	decision_ratio[23] 	1
scalar tree_4_3_u00_r4_network.node[24].core_layer 	interests[24] 	12097
scalar tree_4_3_u00_r4_network.node[24].core_layer 	data[24] 	10210
scalar tree_4_3_u00_r4_network.node[24].content_store 	p_hit[24] 	0.15607175332727
scalar tree_4_3_u00_r4_network.node[24].content_store 	hits[24] 	1888
scalar tree_4_3_u00_r4_network.node[24].content_store 	misses[24] 	10209
scalar tree_4_3_u00_r4_network.node[24].content_store 	decision_yes[24] 	10210
scalar tree_4_3_u00_r4_network.node[24].content_store 	decision_no[24] 	0
scalar tree_4_3_u00_r4_network.node[24].content_store 	decision_ratio[24] 	1
scalar tree_4_3_u00_r4_network.node[25].core_layer 	interests[25] 	11983
scalar tree_4_3_u00_r4_network.node[25].core_layer 	data[25] 	10147
scalar tree_4_3_u00_r4_network.node[25].content_store 	p_hit[25] 	0.15313360594175
scalar tree_4_3_u00_r4_network.node[25].content_store 	hits[25] 	1835
scalar tree_4_3_u00_r4_network.node[25].content_store 	misses[25] 	10148
scalar tree_4_3_u00_r4_network.node[25].content_store 	decision_yes[25] 	10147
scalar tree_4_3_u00_r4_network.node[25].content_store 	decision_no[25] 	0
scalar tree_4_3_u00_r4_network.node[25].content_store 	decision_ratio[25] 	1
scalar tree_4_3_u00_r4_network.node[26].core_layer 	interests[26] 	12047
scalar tree_4_3_u00_r4_network.node[26].core_layer 	data[26] 	10100
scalar tree_4_3_u00_r4_network.node[26].content_store 	p_hit[26] 	0.16170000830082
scalar tree_4_3_u00_r4_network.node[26].content_store 	hits[26] 	1948
scalar tree_4_3_u00_r4_network.node[26].content_store 	misses[26] 	10099
scalar tree_4_3_u00_r4_network.node[26].content_store 	decision_yes[26] 	10100
scalar tree_4_3_u00_r4_network.node[26].content_store 	decision_no[26] 	0
scalar tree_4_3_u00_r4_network.node[26].content_store 	decision_ratio[26] 	1
scalar tree_4_3_u00_r4_network.node[27].core_layer 	interests[27] 	12014
scalar tree_4_3_u00_r4_network.node[27].core_layer 	data[27] 	10223
scalar tree_4_3_u00_r4_network.node[27].content_store 	p_hit[27] 	0.14915931413351
scalar tree_4_3_u00_r4_network.node[27].content_store 	hits[27] 	1792
scalar tree_4_3_u00_r4_network.node[27].content_store 	misses[27] 	10222
scalar tree_4_3_u00_r4_network.node[27].content_store 	decision_yes[27] 	10223
scalar tree_4_3_u00_r4_network.node[27].content_store 	decision_no[27] 	0
scalar tree_4_3_u00_r4_network.node[27].content_store 	decision_ratio[27] 	1
scalar tree_4_3_u00_r4_network.node[28].core_layer 	interests[28] 	12032
scalar tree_4_3_u00_r4_network.node[28].core_layer 	data[28] 	10128
scalar tree_4_3_u00_r4_network.node[28].content_store 	p_hit[28] 	0.15807845744681
scalar tree_4_3_u00_r4_network.node[28].content_store 	hits[28] 	1902
scalar tree_4_3_u00_r4_network.node[28].content_store 	misses[28] 	10130
scalar tree_4_3_u00_r4_network.node[28].content_store 	decision_yes[28] 	10128
scalar tree_4_3_u00_r4_network.node[28].content_store 	decision_no[28] 	0
scalar tree_4_3_u00_r4_network.node[28].content_store 	decision_ratio[28] 	1
scalar tree_4_3_u00_r4_network.node[29].core_layer 	interests[29] 	11826
scalar tree_4_3_u00_r4_network.node[29].core_layer 	data[29] 	9942
scalar tree_4_3_u00_r4_network.node[29].content_store 	p_hit[29] 	0.15922543548114
scalar tree_4_3_u00_r4_network.node[29].content_store 	hits[29] 	1883
scalar tree_4_3_u00_r4_network.node[29].content_store 	misses[29] 	9943
scalar tree_4_3_u00_r4_network.node[29].content_store 	decision_yes[29] 	9942
scalar tree_4_3_u00_r4_network.node[29].content_store 	decision_no[29] 	0
scalar tree_4_3_u00_r4_network.node[29].content_store 	decision_ratio[29] 	1
scalar tree_4_3_u00_r4_network.node[30].core_layer 	interests[30] 	12007
scalar tree_4_3_u00_r4_network.node[30].core_layer 	data[30] 	10089
scalar tree_4_3_u00_r4_network.node[30].content_store 	p_hit[30] 	0.15949029732656
scalar tree_4_3_u00_r4_network.node[30].content_store 	hits[30] 	1915
scalar tree_4_3_u00_r4_network.node[30].content_store 	misses[30] 	10092
scalar tree_4_3_u00_r4_network.node[30].content_store 	decision_yes[30] 	10089
scalar tree_4_3_u00_r4_network.node[30].content_store 	decision_no[30] 	0
scalar tree_4_3_u00_r4_network.node[30].content_store 	decision_ratio[30] 	1
scalar tree_4_3_u00_r4_network.node[31].core_layer 	interests[31] 	11991
scalar tree_4_3_u00_r4_network.node[31].core_layer 	data[31] 	10142
scalar tree_4_3_u00_r4_network.node[31].content_store 	p_hit[31] 	0.15403219080977
scalar tree_4_3_u00_r4_network.node[31].content_store 	hits[31] 	1847
scalar tree_4_3_u00_r4_network.node[31].content_store 	misses[31] 	10144
scalar tree_4_3_u00_r4_network.node[31].content_store 	decision_yes[31] 	10142
scalar tree_4_3_u00_r4_network.node[31].content_store 	decision_no[31] 	0
scalar tree_4_3_u00_r4_network.node[31].content_store 	decision_ratio[31] 	1
scalar tree_4_3_u00_r4_network.node[32].core_layer 	interests[32] 	11785
scalar tree_4_3_u00_r4_network.node[32].core_layer 	data[32] 	9977
scalar tree_4_3_u00_r4_network.node[32].content_store 	p_hit[32] 	0.15333050487908
scalar tree_4_3_u00_r4_network.node[32].content_store 	hits[32] 	1807
scalar tree_4_3_u00_r4_network.node[32].content_store 	misses[32] 	9978
scalar tree_4_3_u00_r4_network.node[32].content_store 	decision_yes[32] 	9977
scalar tree_4_3_u00_r4_network.node[32].content_store 	decision_no[32] 	0
scalar tree_4_3_u00_r4_network.node[32].content_store 	decision_ratio[32] 	1
scalar tree_4_3_u00_r4_network.node[33].core_layer 	interests[33] 	11944
scalar tree_4_3_u00_r4_network.node[33].core_layer 	data[33] 	10132
scalar tree_4_3_u00_r4_network.node[33].content_store 	p_hit[33] 	0.15154052243804
scalar tree_4_3_u00_r4_network.node[33].content_store 	hits[33] 	1810
scalar tree_4_3_u00_r4_network.node[33].content_store 	misses[33] 	10134
scalar tree_4_3_u00_r4_network.node[33].content_store 	decision_yes[33] 	10132
scalar tree_4_3_u00_r4_network.node[33].content_store 	decision_no[33] 	0
scalar tree_4_3_u00_r4_network.node[33].content_store 	decision_ratio[33] 	1
scalar tree_4_3_u00_r4_network.node[34].core_layer 	interests[34] 	12046
scalar tree_4_3_u00_r4_network.node[34].core_layer 	data[34] 	10212
scalar tree_4_3_u00_r4_network.node[34].content_store 	p_hit[34] 	0.15224970944712
scalar tree_4_3_u00_r4_network.node[34].content_store 	hits[34] 	1834
scalar tree_4_3_u00_r4_network.node[34].content_store 	misses[34] 	10212
scalar tree_4_3_u00_r4_network.node[34].content_store 	decision_yes[34] 	10212
scalar tree_4_3_u00_r4_network.node[34].content_store 	decision_no[34] 	0
scalar tree_4_3_u00_r4_network.node[34].content_store 	decision_ratio[34] 	1
scalar tree_4_3_u00_r4_network.node[35].core_layer 	interests[35] 	12144
scalar tree_4_3_u00_r4_network.node[35].core_layer 	data[35] 	10238
scalar tree_4_3_u00_r4_network.node[35].content_store 	p_hit[35] 	0.15686758893281
scalar tree_4_3_u00_r4_network.node[35].content_store 	hits[35] 	1905
scalar tree_4_3_u00_r4_network.node[35].content_store 	misses[35] 	10239
scalar tree_4_3_u00_r4_network.node[35].content_store 	decision_yes[35] 	10238
scalar tree_4_3_u00_r4_network.node[35].content_store 	decision_no[35] 	0
scalar tree_4_3_u00_r4_network.node[35].content_store 	decision_ratio[35] 	1
scalar tree_4_3_u00_r4_network.node[36].core_layer 	interests[36] 	11860
scalar tree_4_3_u00_r4_network.node[36].core_layer 	data[36] 	10022
scalar tree_4_3_u00_r4_network.node[36].content_store 	p_hit[36] 	0.15480607082631
scalar tree_4_3_u00_r4_network.node[36].content_store 	hits[36] 	1836
scalar tree_4_3_u00_r4_network.node[36].content_store 	misses[36] 	10024
scalar tree_4_3_u00_r4_network.node[36].content_store 	decision_yes[36] 	10022
scalar tree_4_3_u00_r4_network.node[36].content_store 	decision_no[36] 	0
scalar tree_4_3_u00_r4_network.node[36].content_store 	decision_ratio[36] 	1
scalar tree_4_3_u00_r4_network.node[37].core_layer 	interests[37] 	11874
scalar tree_4_3_u00_r4_network.node[37].core_layer 	data[37] 	10028
scalar tree_4_3_u00_r4_network.node[37].content_store 	p_hit[37] 	0.15546572342934
scalar tree_4_3_u00_r4_network.node[37].content_store 	hits[37] 	1846
scalar tree_4_3_u00_r4_network.node[37].content_store 	misses[37] 	10028
scalar tree_4_3_u00_r4_network.node[37].content_store 	decision_yes[37] 	10028
scalar tree_4_3_u00_r4_network.node[37].content_store 	decision_no[37] 	0
scalar tree_4_3_u00_r4_network.node[37].content_store 	decision_ratio[37] 	1
scalar tree_4_3_u00_r4_network.node[38].core_layer 	interests[38] 	11835
scalar tree_4_3_u00_r4_network.node[38].core_layer 	data[38] 	9974
scalar tree_4_3_u00_r4_network.node[38].content_store 	p_hit[38] 	0.15724545838614
scalar tree_4_3_u00_r4_network.node[38].content_store 	hits[38] 	1861
scalar tree_4_3_u00_r4_network.node[38].content_store 	misses[38] 	9974
scalar tree_4_3_u00_r4_network.node[38].content_store 	decision_yes[38] 	9974
scalar tree_4_3_u00_r4_network.node[38].content_store 	decision_no[38] 	0
scalar tree_4_3_u00_r4_network.node[38].content_store 	decision_ratio[38] 	1
scalar tree_4_3_u00_r4_network.node[39].core_layer 	interests[39] 	11940
scalar tree_4_3_u00_r4_network.node[39].core_layer 	data[39] 	10030
scalar tree_4_3_u00_r4_network.node[39].content_store 	p_hit[39] 	0.15979899497487
scalar tree_4_3_u00_r4_network.node[39].content_store 	hits[39] 	1908
scalar tree_4_3_u00_r4_network.node[39].content_store 	misses[39] 	10032
scalar tree_4_3_u00_r4_network.node[39].content_store 	decision_yes[39] 	10030
scalar tree_4_3_u00_r4_network.node[39].content_store 	decision_no[39] 	0
scalar tree_4_3_u00_r4_network.node[39].content_store 	decision_ratio[39] 	1
scalar tree_4_3_u00_r4_network.client[13] 	hdistance[13] 	3.3689280079714
scalar tree_4_3_u00_r4_network.client[13] 	downloads[13] 	12043
scalar tree_4_3_u00_r4_network.client[13] 	avg_time[13] 	0.005053077339
scalar tree_4_3_u00_r4_network.client[14] 	hdistance[14] 	3.3743623498437
scalar tree_4_3_u00_r4_network.client[14] 	downloads[14] 	12154
scalar tree_4_3_u00_r4_network.client[14] 	avg_time[14] 	0.005061075694
scalar tree_4_3_u00_r4_network.client[15] 	hdistance[15] 	3.3658089766009
scalar tree_4_3_u00_r4_network.client[15] 	downloads[15] 	12009
scalar tree_4_3_u00_r4_network.client[15] 	avg_time[15] 	0.00504782397
scalar tree_4_3_u00_r4_network.client[16] 	hdistance[16] 	3.3838996427681
scalar tree_4_3_u00_r4_network.client[16] 	downloads[16] 	12037
scalar tree_4_3_u00_r4_network.client[16] 	avg_time[16] 	0.005075114057
scalar tree_4_3_u00_r4_network.client[17] 	hdistance[17] 	3.3876894420455
scalar tree_4_3_u00_r4_network.client[17] 	downloads[17] 	11811
scalar tree_4_3_u00_r4_network.client[17] 	avg_time[17] 	0.005081248437
scalar tree_4_3_u00_r4_network.client[18] 	hdistance[18] 	3.3540784997096
scalar tree_4_3_u00_r4_network.client[18] 	downloads[18] 	12051
scalar tree_4_3_u00_r4_network.client[18] 	avg_time[18] 	0.005030807445
scalar tree_4_3_u00_r4_network.client[19] 	hdistance[19] 	3.3773016404419
scalar tree_4_3_u00_r4_network.client[19] 	downloads[19] 	11948
scalar tree_4_3_u00_r4_network.client[19] 	avg_time[19] 	0.005065744948
scalar tree_4_3_u00_r4_network.client[20] 	hdistance[20] 	3.3679480778832
scalar tree_4_3_u00_r4_network.client[20] 	downloads[20] 	12018
scalar tree_4_3_u00_r4_network.client[20] 	avg_time[20] 	0.005051658763
scalar tree_4_3_u00_r4_network.client[21] 	hdistance[21] 	3.3862696443342
scalar tree_4_3_u00_r4_network.client[21] 	downloads[21] 	12090
scalar tree_4_3_u00_r4_network.client[21] 	avg_time[21] 	0.00507901347
scalar tree_4_3_u00_r4_network.client[22] 	hdistance[22] 	3.357777047024
scalar tree_4_3_u00_r4_network.client[22] 	downloads[22] 	12164
scalar tree_4_3_u00_r4_network.client[22] 	avg_time[22] 	0.00503636112
scalar tree_4_3_u00_r4_network.client[23] 	hdistance[23] 	3.3963829434213
scalar tree_4_3_u00_r4_network.client[23] 	downloads[23] 	12054
scalar tree_4_3_u00_r4_network.client[23] 	avg_time[23] 	0.005094458324
scalar tree_4_3_u00_r4_network.client[24] 	hdistance[24] 	3.3757645891883
scalar tree_4_3_u00_r4_network.client[24] 	downloads[24] 	12098
scalar tree_4_3_u00_r4_network.client[24] 	avg_time[24] 	0.005063643884
scalar tree_4_3_u00_r4_network.client[25] 	hdistance[25] 	3.3874144550159
scalar tree_4_3_u00_r4_network.client[25] 	downloads[25] 	11982
scalar tree_4_3_u00_r4_network.client[25] 	avg_time[25] 	0.005081021649
scalar tree_4_3_u00_r4_network.client[26] 	hdistance[26] 	3.3532536520584
scalar tree_4_3_u00_r4_network.client[26] 	downloads[26] 	12048
scalar tree_4_3_u00_r4_network.client[26] 	avg_time[26] 	0.005029498399
scalar tree_4_3_u00_r4_network.client[27] 	hdistance[27] 	3.4034124011652
scalar tree_4_3_u00_r4_network.client[27] 	downloads[27] 	12015
scalar tree_4_3_u00_r4_network.client[27] 	avg_time[27] 	0.005104775274
scalar tree_4_3_u00_r4_network.client[28] 	hdistance[28] 	3.3675810473816
scalar tree_4_3_u00_r4_network.client[28] 	downloads[28] 	12030
scalar tree_4_3_u00_r4_network.client[28] 	avg_time[28] 	0.005050926911
scalar tree_4_3_u00_r4_network.client[29] 	hdistance[29] 	3.363044397463
scalar tree_4_3_u00_r4_network.client[29] 	downloads[29] 	11825
scalar tree_4_3_u00_r4_network.client[29] 	avg_time[29] 	0.005044523979
scalar tree_4_3_u00_r4_network.client[30] 	hdistance[30] 	3.3618793735422
scalar tree_4_3_u00_r4_network.client[30] 	downloads[30] 	12004
scalar tree_4_3_u00_r4_network.client[30] 	avg_time[30] 	0.005041859189
scalar tree_4_3_u00_r4_network.client[31] 	hdistance[31] 	3.3837684544165
scalar tree_4_3_u00_r4_network.client[31] 	downloads[31] 	11989
scalar tree_4_3_u00_r4_network.client[31] 	avg_time[31] 	0.005075066203
scalar tree_4_3_u00_r4_network.client[32] 	hdistance[32] 	3.3866259334691
scalar tree_4_3_u00_r4_network.client[32] 	downloads[32] 	11784
scalar tree_4_3_u00_r4_network.client[32] 	avg_time[32] 	0.005079622248
scalar tree_4_3_u00_r4_network.client[33] 	hdistance[33] 	3.3937363925641
scalar tree_4_3_u00_r4_network.client[33] 	downloads[33] 	11942
scalar tree_4_3_u00_r4_network.client[33] 	avg_time[33] 	0.005090220044
scalar tree_4_3_u00_r4_network.client[34] 	hdistance[34] 	3.3910011622115
scalar tree_4_3_u00_r4_network.client[34] 	downloads[34] 	12046
scalar tree_4_3_u00_r4_network.client[34] 	avg_time[34] 	0.005085975856
scalar tree_4_3_u00_r4_network.client[35] 	hdistance[35] 	3.3724779708474
scalar tree_4_3_u00_r4_network.client[35] 	downloads[35] 	12143
scalar tree_4_3_u00_r4_network.client[35] 	avg_time[35] 	0.005057933715
scalar tree_4_3_u00_r4_network.client[36] 	hdistance[36] 	3.3806712767752
scalar tree_4_3_u00_r4_network.client[36] 	downloads[36] 	11858
scalar tree_4_3_u00_r4_network.client[36] 	avg_time[36] 	0.005070797995
scalar tree_4_3_u00_r4_network.client[37] 	hdistance[37] 	3.3781371062826
scalar tree_4_3_u00_r4_network.client[37] 	downloads[37] 	11874
scalar tree_4_3_u00_r4_network.client[37] 	avg_time[37] 	0.00506708224
scalar tree_4_3_u00_r4_network.client[38] 	hdistance[38] 	3.3710181664554
scalar tree_4_3_u00_r4_network.client[38] 	downloads[38] 	11835
scalar tree_4_3_u00_r4_network.client[38] 	avg_time[38] 	0.005056524297
scalar tree_4_3_u00_r4_network.client[39] 	hdistance[39] 	3.3606969341598
scalar tree_4_3_u00_r4_network.client[39] 	downloads[39] 	11938
scalar tree_4_3_u00_r4_network.client[39] 	avg_time[39] 	0.005040889759
