version 2
run General-190-20160902-16:21:57-7280
attr a 0.9
attr cd wfc0.01
attr configname General
attr cr lru
attr datetime 20160902-16:21:57
attr experiment General
attr fsize 1
attr inifile hw5115/scenario_Y/omnetp.ini
attr iterationvars "$name=tree_4_3, $un=09, $rep=11, $cd=wfc0.01, $cr=lru, $fsize=1, $a=0.9, $sl=nrr, $ttl=1000, $variance=0.05"
attr iterationvars2 "$name=tree_4_3, $un=09, $rep=11, $cd=wfc0.01, $cr=lru, $fsize=1, $a=0.9, $sl=nrr, $ttl=1000, $variance=0.05, $repetition=0"
attr measurement "$name=tree_4_3, $un=09, $rep=11, $cd=wfc0.01, $cr=lru, $fsize=1, $a=0.9, $sl=nrr, $ttl=1000, $variance=0.05"
attr name tree_4_3
attr network networks.${name}_u${un}_r${rep}_network
attr processid 7280
attr rep 11
attr repetition 0
attr replication #0
attr resultdir results
attr runnumber 190
attr seedset 11
attr sl nrr
attr ttl 1000
attr un 09
attr variance 0.05

scalar . 	a 	0.9
scalar . 	fsize 	1
scalar . 	rep 	11
scalar . 	ttl 	1000
scalar . 	un 	09
scalar . 	variance 	0.05
scalar tree_4_3_u09_r11_network.content_distribution 	repo-0 	0
scalar tree_4_3_u09_r11_network.content_distribution 	client-0 	13
scalar tree_4_3_u09_r11_network.content_distribution 	client-1 	14
scalar tree_4_3_u09_r11_network.content_distribution 	client-2 	15
scalar tree_4_3_u09_r11_network.content_distribution 	client-3 	16
scalar tree_4_3_u09_r11_network.content_distribution 	client-4 	17
scalar tree_4_3_u09_r11_network.content_distribution 	client-5 	18
scalar tree_4_3_u09_r11_network.content_distribution 	client-6 	19
scalar tree_4_3_u09_r11_network.content_distribution 	client-7 	20
scalar tree_4_3_u09_r11_network.content_distribution 	client-8 	21
scalar tree_4_3_u09_r11_network.content_distribution 	client-9 	22
scalar tree_4_3_u09_r11_network.content_distribution 	client-10 	23
scalar tree_4_3_u09_r11_network.content_distribution 	client-11 	24
scalar tree_4_3_u09_r11_network.content_distribution 	client-12 	25
scalar tree_4_3_u09_r11_network.content_distribution 	client-13 	26
scalar tree_4_3_u09_r11_network.content_distribution 	client-14 	27
scalar tree_4_3_u09_r11_network.content_distribution 	client-15 	28
scalar tree_4_3_u09_r11_network.content_distribution 	client-16 	29
scalar tree_4_3_u09_r11_network.content_distribution 	client-17 	30
scalar tree_4_3_u09_r11_network.content_distribution 	client-18 	31
scalar tree_4_3_u09_r11_network.content_distribution 	client-19 	32
scalar tree_4_3_u09_r11_network.content_distribution 	client-20 	33
scalar tree_4_3_u09_r11_network.content_distribution 	client-21 	34
scalar tree_4_3_u09_r11_network.content_distribution 	client-22 	35
scalar tree_4_3_u09_r11_network.content_distribution 	client-23 	36
scalar tree_4_3_u09_r11_network.content_distribution 	client-24 	37
scalar tree_4_3_u09_r11_network.content_distribution 	client-25 	38
scalar tree_4_3_u09_r11_network.content_distribution 	client-26 	39
scalar tree_4_3_u09_r11_network.content_distribution 	repo-0_card 	100000
scalar tree_4_3_u09_r11_network.content_distribution 	repo-0_price 	0
scalar tree_4_3_u09_r11_network.statistics 	stabilization_time 	1120
scalar tree_4_3_u09_r11_network.statistics 	p_hit 	0.23719741082875
scalar tree_4_3_u09_r11_network.statistics 	interests 	25057.825
scalar tree_4_3_u09_r11_network.statistics 	data 	16942.15
scalar tree_4_3_u09_r11_network.statistics 	hdistance 	2.6490343208179
scalar tree_4_3_u09_r11_network.statistics 	avg_time 	0.004175218443
scalar tree_4_3_u09_r11_network.statistics 	downloads 	324619
scalar tree_4_3_u09_r11_network.statistics 	total_cost 	0
scalar tree_4_3_u09_r11_network.statistics 	total_replicas 	100000
scalar tree_4_3_u09_r11_network.statistics 	inner_hit 	0.43859724785056
scalar tree_4_3_u09_r11_network.node[0].core_layer 	interests[0] 	184383
scalar tree_4_3_u09_r11_network.node[0].core_layer 	repo_load[0] 	182242
scalar tree_4_3_u09_r11_network.node[0].core_layer 	data[0] 	0
scalar tree_4_3_u09_r11_network.node[0].core_layer 	repo_int[0] 	182242
scalar tree_4_3_u09_r11_network.node[0].content_store 	p_hit[0] 	0.011611699560155
scalar tree_4_3_u09_r11_network.node[0].content_store 	hits[0] 	2141
scalar tree_4_3_u09_r11_network.node[0].content_store 	misses[0] 	182242
scalar tree_4_3_u09_r11_network.node[0].content_store 	decision_yes[0] 	2582
scalar tree_4_3_u09_r11_network.node[0].content_store 	decision_no[0] 	179660
scalar tree_4_3_u09_r11_network.node[0].content_store 	decision_ratio[0] 	0.014167974451553
scalar tree_4_3_u09_r11_network.node[1].core_layer 	interests[1] 	101170
scalar tree_4_3_u09_r11_network.node[1].core_layer 	data[1] 	99859
scalar tree_4_3_u09_r11_network.node[1].content_store 	p_hit[1] 	0.01294850252051
scalar tree_4_3_u09_r11_network.node[1].content_store 	hits[1] 	1310
scalar tree_4_3_u09_r11_network.node[1].content_store 	misses[1] 	99860
scalar tree_4_3_u09_r11_network.node[1].content_store 	decision_yes[1] 	1077
scalar tree_4_3_u09_r11_network.node[1].content_store 	decision_no[1] 	98782
scalar tree_4_3_u09_r11_network.node[1].content_store 	decision_ratio[1] 	0.01078520714207
scalar tree_4_3_u09_r11_network.node[2].core_layer 	interests[2] 	71550
scalar tree_4_3_u09_r11_network.node[2].core_layer 	data[2] 	68551
scalar tree_4_3_u09_r11_network.node[2].content_store 	p_hit[2] 	0.041872816212439
scalar tree_4_3_u09_r11_network.node[2].content_store 	hits[2] 	2996
scalar tree_4_3_u09_r11_network.node[2].content_store 	misses[2] 	68554
scalar tree_4_3_u09_r11_network.node[2].content_store 	decision_yes[2] 	845
scalar tree_4_3_u09_r11_network.node[2].content_store 	decision_no[2] 	67706
scalar tree_4_3_u09_r11_network.node[2].content_store 	decision_ratio[2] 	0.012326588962962
scalar tree_4_3_u09_r11_network.node[3].core_layer 	interests[3] 	37655
scalar tree_4_3_u09_r11_network.node[3].core_layer 	data[3] 	34102
scalar tree_4_3_u09_r11_network.node[3].content_store 	p_hit[3] 	0.094356659142212
scalar tree_4_3_u09_r11_network.node[3].content_store 	hits[3] 	3553
scalar tree_4_3_u09_r11_network.node[3].content_store 	misses[3] 	34102
scalar tree_4_3_u09_r11_network.node[3].content_store 	decision_yes[3] 	552
scalar tree_4_3_u09_r11_network.node[3].content_store 	decision_no[3] 	33550
scalar tree_4_3_u09_r11_network.node[3].content_store 	decision_ratio[3] 	0.016186733915899
scalar tree_4_3_u09_r11_network.node[4].core_layer 	interests[4] 	41380
scalar tree_4_3_u09_r11_network.node[4].core_layer 	data[4] 	39152
scalar tree_4_3_u09_r11_network.node[4].content_store 	p_hit[4] 	0.053842435959401
scalar tree_4_3_u09_r11_network.node[4].content_store 	hits[4] 	2228
scalar tree_4_3_u09_r11_network.node[4].content_store 	misses[4] 	39152
scalar tree_4_3_u09_r11_network.node[4].content_store 	decision_yes[4] 	533
scalar tree_4_3_u09_r11_network.node[4].content_store 	decision_no[4] 	38619
scalar tree_4_3_u09_r11_network.node[4].content_store 	decision_ratio[4] 	0.013613608500204
scalar tree_4_3_u09_r11_network.node[5].core_layer 	interests[5] 	29983
scalar tree_4_3_u09_r11_network.node[5].core_layer 	data[5] 	26608
scalar tree_4_3_u09_r11_network.node[5].content_store 	p_hit[5] 	0.11253043391255
scalar tree_4_3_u09_r11_network.node[5].content_store 	hits[5] 	3374
scalar tree_4_3_u09_r11_network.node[5].content_store 	misses[5] 	26609
scalar tree_4_3_u09_r11_network.node[5].content_store 	decision_yes[5] 	486
scalar tree_4_3_u09_r11_network.node[5].content_store 	decision_no[5] 	26122
scalar tree_4_3_u09_r11_network.node[5].content_store 	decision_ratio[5] 	0.018265183403488
scalar tree_4_3_u09_r11_network.node[6].core_layer 	interests[6] 	15695
scalar tree_4_3_u09_r11_network.node[6].core_layer 	data[6] 	11894
scalar tree_4_3_u09_r11_network.node[6].content_store 	p_hit[6] 	0.24217903791016
scalar tree_4_3_u09_r11_network.node[6].content_store 	hits[6] 	3801
scalar tree_4_3_u09_r11_network.node[6].content_store 	misses[6] 	11894
scalar tree_4_3_u09_r11_network.node[6].content_store 	decision_yes[6] 	422
scalar tree_4_3_u09_r11_network.node[6].content_store 	decision_no[6] 	11472
scalar tree_4_3_u09_r11_network.node[6].content_store 	decision_ratio[6] 	0.035480073986884
scalar tree_4_3_u09_r11_network.node[7].core_layer 	interests[7] 	44786
scalar tree_4_3_u09_r11_network.node[7].core_layer 	data[7] 	41714
scalar tree_4_3_u09_r11_network.node[7].content_store 	p_hit[7] 	0.068525878622784
scalar tree_4_3_u09_r11_network.node[7].content_store 	hits[7] 	3069
scalar tree_4_3_u09_r11_network.node[7].content_store 	misses[7] 	41717
scalar tree_4_3_u09_r11_network.node[7].content_store 	decision_yes[7] 	650
scalar tree_4_3_u09_r11_network.node[7].content_store 	decision_no[7] 	41064
scalar tree_4_3_u09_r11_network.node[7].content_store 	decision_ratio[7] 	0.015582298508894
scalar tree_4_3_u09_r11_network.node[8].core_layer 	interests[8] 	18931
scalar tree_4_3_u09_r11_network.node[8].core_layer 	data[8] 	16682
scalar tree_4_3_u09_r11_network.node[8].content_store 	p_hit[8] 	0.11879985209445
scalar tree_4_3_u09_r11_network.node[8].content_store 	hits[8] 	2249
scalar tree_4_3_u09_r11_network.node[8].content_store 	misses[8] 	16682
scalar tree_4_3_u09_r11_network.node[8].content_store 	decision_yes[8] 	285
scalar tree_4_3_u09_r11_network.node[8].content_store 	decision_no[8] 	16397
scalar tree_4_3_u09_r11_network.node[8].content_store 	decision_ratio[8] 	0.017084282460137
scalar tree_4_3_u09_r11_network.node[9].core_layer 	interests[9] 	23515
scalar tree_4_3_u09_r11_network.node[9].core_layer 	data[9] 	19822
scalar tree_4_3_u09_r11_network.node[9].content_store 	p_hit[9] 	0.15704869232405
scalar tree_4_3_u09_r11_network.node[9].content_store 	hits[9] 	3693
scalar tree_4_3_u09_r11_network.node[9].content_store 	misses[9] 	19822
scalar tree_4_3_u09_r11_network.node[9].content_store 	decision_yes[9] 	478
scalar tree_4_3_u09_r11_network.node[9].content_store 	decision_no[9] 	19344
scalar tree_4_3_u09_r11_network.node[9].content_store 	decision_ratio[9] 	0.02411462011906
scalar tree_4_3_u09_r11_network.node[10].core_layer 	interests[10] 	29533
scalar tree_4_3_u09_r11_network.node[10].core_layer 	data[10] 	26862
scalar tree_4_3_u09_r11_network.node[10].content_store 	p_hit[10] 	0.090441201367961
scalar tree_4_3_u09_r11_network.node[10].content_store 	hits[10] 	2671
scalar tree_4_3_u09_r11_network.node[10].content_store 	misses[10] 	26862
scalar tree_4_3_u09_r11_network.node[10].content_store 	decision_yes[10] 	478
scalar tree_4_3_u09_r11_network.node[10].content_store 	decision_no[10] 	26384
scalar tree_4_3_u09_r11_network.node[10].content_store 	decision_ratio[10] 	0.017794654158291
scalar tree_4_3_u09_r11_network.node[11].core_layer 	interests[11] 	44357
scalar tree_4_3_u09_r11_network.node[11].core_layer 	data[11] 	41162
scalar tree_4_3_u09_r11_network.node[11].content_store 	p_hit[11] 	0.072029217485403
scalar tree_4_3_u09_r11_network.node[11].content_store 	hits[11] 	3195
scalar tree_4_3_u09_r11_network.node[11].content_store 	misses[11] 	41162
scalar tree_4_3_u09_r11_network.node[11].content_store 	decision_yes[11] 	619
scalar tree_4_3_u09_r11_network.node[11].content_store 	decision_no[11] 	40543
scalar tree_4_3_u09_r11_network.node[11].content_store 	decision_ratio[11] 	0.015038141975609
scalar tree_4_3_u09_r11_network.node[12].core_layer 	interests[12] 	12149
scalar tree_4_3_u09_r11_network.node[12].core_layer 	data[12] 	9080
scalar tree_4_3_u09_r11_network.node[12].content_store 	p_hit[12] 	0.2526133838176
scalar tree_4_3_u09_r11_network.node[12].content_store 	hits[12] 	3069
scalar tree_4_3_u09_r11_network.node[12].content_store 	misses[12] 	9080
scalar tree_4_3_u09_r11_network.node[12].content_store 	decision_yes[12] 	240
scalar tree_4_3_u09_r11_network.node[12].content_store 	decision_no[12] 	8840
scalar tree_4_3_u09_r11_network.node[12].content_store 	decision_ratio[12] 	0.026431718061674
scalar tree_4_3_u09_r11_network.node[13].core_layer 	interests[13] 	12535
scalar tree_4_3_u09_r11_network.node[13].core_layer 	data[13] 	8935
scalar tree_4_3_u09_r11_network.node[13].content_store 	p_hit[13] 	0.28719585161548
scalar tree_4_3_u09_r11_network.node[13].content_store 	hits[13] 	3600
scalar tree_4_3_u09_r11_network.node[13].content_store 	misses[13] 	8935
scalar tree_4_3_u09_r11_network.node[13].content_store 	decision_yes[13] 	142
scalar tree_4_3_u09_r11_network.node[13].content_store 	decision_no[13] 	8793
scalar tree_4_3_u09_r11_network.node[13].content_store 	decision_ratio[13] 	0.015892557358702
scalar tree_4_3_u09_r11_network.node[14].core_layer 	interests[14] 	13013
scalar tree_4_3_u09_r11_network.node[14].core_layer 	data[14] 	9048
scalar tree_4_3_u09_r11_network.node[14].content_store 	p_hit[14] 	0.3046953046953
scalar tree_4_3_u09_r11_network.node[14].content_store 	hits[14] 	3965
scalar tree_4_3_u09_r11_network.node[14].content_store 	misses[14] 	9048
scalar tree_4_3_u09_r11_network.node[14].content_store 	decision_yes[14] 	133
scalar tree_4_3_u09_r11_network.node[14].content_store 	decision_no[14] 	8915
scalar tree_4_3_u09_r11_network.node[14].content_store 	decision_ratio[14] 	0.014699381078691
scalar tree_4_3_u09_r11_network.node[15].core_layer 	interests[15] 	12980
scalar tree_4_3_u09_r11_network.node[15].core_layer 	data[15] 	8980
scalar tree_4_3_u09_r11_network.node[15].content_store 	p_hit[15] 	0.30816640986133
scalar tree_4_3_u09_r11_network.node[15].content_store 	hits[15] 	4000
scalar tree_4_3_u09_r11_network.node[15].content_store 	misses[15] 	8980
scalar tree_4_3_u09_r11_network.node[15].content_store 	decision_yes[15] 	137
scalar tree_4_3_u09_r11_network.node[15].content_store 	decision_no[15] 	8843
scalar tree_4_3_u09_r11_network.node[15].content_store 	decision_ratio[15] 	0.015256124721604
scalar tree_4_3_u09_r11_network.node[16].core_layer 	interests[16] 	12891
scalar tree_4_3_u09_r11_network.node[16].core_layer 	data[16] 	8922
scalar tree_4_3_u09_r11_network.node[16].content_store 	p_hit[16] 	0.30788922504073
scalar tree_4_3_u09_r11_network.node[16].content_store 	hits[16] 	3969
scalar tree_4_3_u09_r11_network.node[16].content_store 	misses[16] 	8922
scalar tree_4_3_u09_r11_network.node[16].content_store 	decision_yes[16] 	149
scalar tree_4_3_u09_r11_network.node[16].content_store 	decision_no[16] 	8773
scalar tree_4_3_u09_r11_network.node[16].content_store 	decision_ratio[16] 	0.016700291414481
scalar tree_4_3_u09_r11_network.node[17].core_layer 	interests[17] 	12553
scalar tree_4_3_u09_r11_network.node[17].core_layer 	data[17] 	8980
scalar tree_4_3_u09_r11_network.node[17].content_store 	p_hit[17] 	0.28463315542101
scalar tree_4_3_u09_r11_network.node[17].content_store 	hits[17] 	3573
scalar tree_4_3_u09_r11_network.node[17].content_store 	misses[17] 	8980
scalar tree_4_3_u09_r11_network.node[17].content_store 	decision_yes[17] 	134
scalar tree_4_3_u09_r11_network.node[17].content_store 	decision_no[17] 	8846
scalar tree_4_3_u09_r11_network.node[17].content_store 	decision_ratio[17] 	0.014922048997773
scalar tree_4_3_u09_r11_network.node[18].core_layer 	interests[18] 	13217
scalar tree_4_3_u09_r11_network.node[18].core_layer 	data[18] 	9108
scalar tree_4_3_u09_r11_network.node[18].content_store 	p_hit[18] 	0.31081183324506
scalar tree_4_3_u09_r11_network.node[18].content_store 	hits[18] 	4108
scalar tree_4_3_u09_r11_network.node[18].content_store 	misses[18] 	9109
scalar tree_4_3_u09_r11_network.node[18].content_store 	decision_yes[18] 	119
scalar tree_4_3_u09_r11_network.node[18].content_store 	decision_no[18] 	8989
scalar tree_4_3_u09_r11_network.node[18].content_store 	decision_ratio[18] 	0.01306543697848
scalar tree_4_3_u09_r11_network.node[19].core_layer 	interests[19] 	13218
scalar tree_4_3_u09_r11_network.node[19].core_layer 	data[19] 	9051
scalar tree_4_3_u09_r11_network.node[19].content_store 	p_hit[19] 	0.31525192918747
scalar tree_4_3_u09_r11_network.node[19].content_store 	hits[19] 	4167
scalar tree_4_3_u09_r11_network.node[19].content_store 	misses[19] 	9051
scalar tree_4_3_u09_r11_network.node[19].content_store 	decision_yes[19] 	137
scalar tree_4_3_u09_r11_network.node[19].content_store 	decision_no[19] 	8914
scalar tree_4_3_u09_r11_network.node[19].content_store 	decision_ratio[19] 	0.015136449011159
scalar tree_4_3_u09_r11_network.node[20].core_layer 	interests[20] 	12970
scalar tree_4_3_u09_r11_network.node[20].core_layer 	data[20] 	8905
scalar tree_4_3_u09_r11_network.node[20].content_store 	p_hit[20] 	0.31341557440247
scalar tree_4_3_u09_r11_network.node[20].content_store 	hits[20] 	4065
scalar tree_4_3_u09_r11_network.node[20].content_store 	misses[20] 	8905
scalar tree_4_3_u09_r11_network.node[20].content_store 	decision_yes[20] 	143
scalar tree_4_3_u09_r11_network.node[20].content_store 	decision_no[20] 	8762
scalar tree_4_3_u09_r11_network.node[20].content_store 	decision_ratio[20] 	0.016058394160584
scalar tree_4_3_u09_r11_network.node[21].core_layer 	interests[21] 	12522
scalar tree_4_3_u09_r11_network.node[21].core_layer 	data[21] 	9003
scalar tree_4_3_u09_r11_network.node[21].content_store 	p_hit[21] 	0.28102539530426
scalar tree_4_3_u09_r11_network.node[21].content_store 	hits[21] 	3519
scalar tree_4_3_u09_r11_network.node[21].content_store 	misses[21] 	9003
scalar tree_4_3_u09_r11_network.node[21].content_store 	decision_yes[21] 	126
scalar tree_4_3_u09_r11_network.node[21].content_store 	decision_no[21] 	8877
scalar tree_4_3_u09_r11_network.node[21].content_store 	decision_ratio[21] 	0.013995334888371
scalar tree_4_3_u09_r11_network.node[22].core_layer 	interests[22] 	12628
scalar tree_4_3_u09_r11_network.node[22].core_layer 	data[22] 	8948
scalar tree_4_3_u09_r11_network.node[22].content_store 	p_hit[22] 	0.29133671206842
scalar tree_4_3_u09_r11_network.node[22].content_store 	hits[22] 	3679
scalar tree_4_3_u09_r11_network.node[22].content_store 	misses[22] 	8949
scalar tree_4_3_u09_r11_network.node[22].content_store 	decision_yes[22] 	118
scalar tree_4_3_u09_r11_network.node[22].content_store 	decision_no[22] 	8830
scalar tree_4_3_u09_r11_network.node[22].content_store 	decision_ratio[22] 	0.01318730442557
scalar tree_4_3_u09_r11_network.node[23].core_layer 	interests[23] 	12970
scalar tree_4_3_u09_r11_network.node[23].core_layer 	data[23] 	8902
scalar tree_4_3_u09_r11_network.node[23].content_store 	p_hit[23] 	0.31356977640709
scalar tree_4_3_u09_r11_network.node[23].content_store 	hits[23] 	4067
scalar tree_4_3_u09_r11_network.node[23].content_store 	misses[23] 	8903
scalar tree_4_3_u09_r11_network.node[23].content_store 	decision_yes[23] 	128
scalar tree_4_3_u09_r11_network.node[23].content_store 	decision_no[23] 	8774
scalar tree_4_3_u09_r11_network.node[23].content_store 	decision_ratio[23] 	0.014378791282858
scalar tree_4_3_u09_r11_network.node[24].core_layer 	interests[24] 	13074
scalar tree_4_3_u09_r11_network.node[24].core_layer 	data[24] 	8984
scalar tree_4_3_u09_r11_network.node[24].content_store 	p_hit[24] 	0.31283463362399
scalar tree_4_3_u09_r11_network.node[24].content_store 	hits[24] 	4090
scalar tree_4_3_u09_r11_network.node[24].content_store 	misses[24] 	8984
scalar tree_4_3_u09_r11_network.node[24].content_store 	decision_yes[24] 	127
scalar tree_4_3_u09_r11_network.node[24].content_store 	decision_no[24] 	8857
scalar tree_4_3_u09_r11_network.node[24].content_store 	decision_ratio[24] 	0.01413624220837
scalar tree_4_3_u09_r11_network.node[25].core_layer 	interests[25] 	13245
scalar tree_4_3_u09_r11_network.node[25].core_layer 	data[25] 	9030
scalar tree_4_3_u09_r11_network.node[25].content_store 	p_hit[25] 	0.31815779539449
scalar tree_4_3_u09_r11_network.node[25].content_store 	hits[25] 	4214
scalar tree_4_3_u09_r11_network.node[25].content_store 	misses[25] 	9031
scalar tree_4_3_u09_r11_network.node[25].content_store 	decision_yes[25] 	123
scalar tree_4_3_u09_r11_network.node[25].content_store 	decision_no[25] 	8907
scalar tree_4_3_u09_r11_network.node[25].content_store 	decision_ratio[25] 	0.013621262458472
scalar tree_4_3_u09_r11_network.node[26].core_layer 	interests[26] 	12427
scalar tree_4_3_u09_r11_network.node[26].core_layer 	data[26] 	8991
scalar tree_4_3_u09_r11_network.node[26].content_store 	p_hit[26] 	0.27641425927416
scalar tree_4_3_u09_r11_network.node[26].content_store 	hits[26] 	3435
scalar tree_4_3_u09_r11_network.node[26].content_store 	misses[26] 	8992
scalar tree_4_3_u09_r11_network.node[26].content_store 	decision_yes[26] 	139
scalar tree_4_3_u09_r11_network.node[26].content_store 	decision_no[26] 	8852
scalar tree_4_3_u09_r11_network.node[26].content_store 	decision_ratio[26] 	0.015459904348793
scalar tree_4_3_u09_r11_network.node[27].core_layer 	interests[27] 	13030
scalar tree_4_3_u09_r11_network.node[27].core_layer 	data[27] 	8962
scalar tree_4_3_u09_r11_network.node[27].content_store 	p_hit[27] 	0.31220260936301
scalar tree_4_3_u09_r11_network.node[27].content_store 	hits[27] 	4068
scalar tree_4_3_u09_r11_network.node[27].content_store 	misses[27] 	8962
scalar tree_4_3_u09_r11_network.node[27].content_store 	decision_yes[27] 	121
scalar tree_4_3_u09_r11_network.node[27].content_store 	decision_no[27] 	8841
scalar tree_4_3_u09_r11_network.node[27].content_store 	decision_ratio[27] 	0.013501450569069
scalar tree_4_3_u09_r11_network.node[28].core_layer 	interests[28] 	13337
scalar tree_4_3_u09_r11_network.node[28].core_layer 	data[28] 	8998
scalar tree_4_3_u09_r11_network.node[28].content_store 	p_hit[28] 	0.3253355327285
scalar tree_4_3_u09_r11_network.node[28].content_store 	hits[28] 	4339
scalar tree_4_3_u09_r11_network.node[28].content_store 	misses[28] 	8998
scalar tree_4_3_u09_r11_network.node[28].content_store 	decision_yes[28] 	150
scalar tree_4_3_u09_r11_network.node[28].content_store 	decision_no[28] 	8848
scalar tree_4_3_u09_r11_network.node[28].content_store 	decision_ratio[28] 	0.016670371193599
scalar tree_4_3_u09_r11_network.node[29].core_layer 	interests[29] 	12728
scalar tree_4_3_u09_r11_network.node[29].core_layer 	data[29] 	8987
scalar tree_4_3_u09_r11_network.node[29].content_store 	p_hit[29] 	0.29391891891892
scalar tree_4_3_u09_r11_network.node[29].content_store 	hits[29] 	3741
scalar tree_4_3_u09_r11_network.node[29].content_store 	misses[29] 	8987
scalar tree_4_3_u09_r11_network.node[29].content_store 	decision_yes[29] 	124
scalar tree_4_3_u09_r11_network.node[29].content_store 	decision_no[29] 	8863
scalar tree_4_3_u09_r11_network.node[29].content_store 	decision_ratio[29] 	0.013797707800156
scalar tree_4_3_u09_r11_network.node[30].core_layer 	interests[30] 	12442
scalar tree_4_3_u09_r11_network.node[30].core_layer 	data[30] 	8904
scalar tree_4_3_u09_r11_network.node[30].content_store 	p_hit[30] 	0.28435942774474
scalar tree_4_3_u09_r11_network.node[30].content_store 	hits[30] 	3538
scalar tree_4_3_u09_r11_network.node[30].content_store 	misses[30] 	8904
scalar tree_4_3_u09_r11_network.node[30].content_store 	decision_yes[30] 	111
scalar tree_4_3_u09_r11_network.node[30].content_store 	decision_no[30] 	8793
scalar tree_4_3_u09_r11_network.node[30].content_store 	decision_ratio[30] 	0.012466307277628
scalar tree_4_3_u09_r11_network.node[31].core_layer 	interests[31] 	12663
scalar tree_4_3_u09_r11_network.node[31].core_layer 	data[31] 	9026
scalar tree_4_3_u09_r11_network.node[31].content_store 	p_hit[31] 	0.28721472005054
scalar tree_4_3_u09_r11_network.node[31].content_store 	hits[31] 	3637
scalar tree_4_3_u09_r11_network.node[31].content_store 	misses[31] 	9026
scalar tree_4_3_u09_r11_network.node[31].content_store 	decision_yes[31] 	100
scalar tree_4_3_u09_r11_network.node[31].content_store 	decision_no[31] 	8926
scalar tree_4_3_u09_r11_network.node[31].content_store 	decision_ratio[31] 	0.011079104808331
scalar tree_4_3_u09_r11_network.node[32].core_layer 	interests[32] 	12988
scalar tree_4_3_u09_r11_network.node[32].core_layer 	data[32] 	8980
scalar tree_4_3_u09_r11_network.node[32].content_store 	p_hit[32] 	0.30859254696643
scalar tree_4_3_u09_r11_network.node[32].content_store 	hits[32] 	4008
scalar tree_4_3_u09_r11_network.node[32].content_store 	misses[32] 	8980
scalar tree_4_3_u09_r11_network.node[32].content_store 	decision_yes[32] 	124
scalar tree_4_3_u09_r11_network.node[32].content_store 	decision_no[32] 	8856
scalar tree_4_3_u09_r11_network.node[32].content_store 	decision_ratio[32] 	0.01380846325167
scalar tree_4_3_u09_r11_network.node[33].core_layer 	interests[33] 	12850
scalar tree_4_3_u09_r11_network.node[33].core_layer 	data[33] 	8992
scalar tree_4_3_u09_r11_network.node[33].content_store 	p_hit[33] 	0.30023346303502
scalar tree_4_3_u09_r11_network.node[33].content_store 	hits[33] 	3858
scalar tree_4_3_u09_r11_network.node[33].content_store 	misses[33] 	8992
scalar tree_4_3_u09_r11_network.node[33].content_store 	decision_yes[33] 	157
scalar tree_4_3_u09_r11_network.node[33].content_store 	decision_no[33] 	8835
scalar tree_4_3_u09_r11_network.node[33].content_store 	decision_ratio[33] 	0.017459964412811
scalar tree_4_3_u09_r11_network.node[34].core_layer 	interests[34] 	13242
scalar tree_4_3_u09_r11_network.node[34].core_layer 	data[34] 	9083
scalar tree_4_3_u09_r11_network.node[34].content_store 	p_hit[34] 	0.31407642350098
scalar tree_4_3_u09_r11_network.node[34].content_store 	hits[34] 	4159
scalar tree_4_3_u09_r11_network.node[34].content_store 	misses[34] 	9083
scalar tree_4_3_u09_r11_network.node[34].content_store 	decision_yes[34] 	157
scalar tree_4_3_u09_r11_network.node[34].content_store 	decision_no[34] 	8926
scalar tree_4_3_u09_r11_network.node[34].content_store 	decision_ratio[34] 	0.017285037983045
scalar tree_4_3_u09_r11_network.node[35].core_layer 	interests[35] 	12777
scalar tree_4_3_u09_r11_network.node[35].core_layer 	data[35] 	9179
scalar tree_4_3_u09_r11_network.node[35].content_store 	p_hit[35] 	0.28159974954997
scalar tree_4_3_u09_r11_network.node[35].content_store 	hits[35] 	3598
scalar tree_4_3_u09_r11_network.node[35].content_store 	misses[35] 	9179
scalar tree_4_3_u09_r11_network.node[35].content_store 	decision_yes[35] 	106
scalar tree_4_3_u09_r11_network.node[35].content_store 	decision_no[35] 	9073
scalar tree_4_3_u09_r11_network.node[35].content_store 	decision_ratio[35] 	0.011548098921451
scalar tree_4_3_u09_r11_network.node[36].core_layer 	interests[36] 	12988
scalar tree_4_3_u09_r11_network.node[36].core_layer 	data[36] 	8908
scalar tree_4_3_u09_r11_network.node[36].content_store 	p_hit[36] 	0.31413612565445
scalar tree_4_3_u09_r11_network.node[36].content_store 	hits[36] 	4080
scalar tree_4_3_u09_r11_network.node[36].content_store 	misses[36] 	8908
scalar tree_4_3_u09_r11_network.node[36].content_store 	decision_yes[36] 	139
scalar tree_4_3_u09_r11_network.node[36].content_store 	decision_no[36] 	8769
scalar tree_4_3_u09_r11_network.node[36].content_store 	decision_ratio[36] 	0.015603951504266
scalar tree_4_3_u09_r11_network.node[37].core_layer 	interests[37] 	12917
scalar tree_4_3_u09_r11_network.node[37].core_layer 	data[37] 	8969
scalar tree_4_3_u09_r11_network.node[37].content_store 	p_hit[37] 	0.30564372532322
scalar tree_4_3_u09_r11_network.node[37].content_store 	hits[37] 	3948
scalar tree_4_3_u09_r11_network.node[37].content_store 	misses[37] 	8969
scalar tree_4_3_u09_r11_network.node[37].content_store 	decision_yes[37] 	146
scalar tree_4_3_u09_r11_network.node[37].content_store 	decision_no[37] 	8823
scalar tree_4_3_u09_r11_network.node[37].content_store 	decision_ratio[37] 	0.016278291894303
scalar tree_4_3_u09_r11_network.node[38].core_layer 	interests[38] 	12889
scalar tree_4_3_u09_r11_network.node[38].core_layer 	data[38] 	8780
scalar tree_4_3_u09_r11_network.node[38].content_store 	p_hit[38] 	0.3187989758709
scalar tree_4_3_u09_r11_network.node[38].content_store 	hits[38] 	4109
scalar tree_4_3_u09_r11_network.node[38].content_store 	misses[38] 	8780
scalar tree_4_3_u09_r11_network.node[38].content_store 	decision_yes[38] 	125
scalar tree_4_3_u09_r11_network.node[38].content_store 	decision_no[38] 	8655
scalar tree_4_3_u09_r11_network.node[38].content_store 	decision_ratio[38] 	0.014236902050114
scalar tree_4_3_u09_r11_network.node[39].core_layer 	interests[39] 	12132
scalar tree_4_3_u09_r11_network.node[39].core_layer 	data[39] 	8643
scalar tree_4_3_u09_r11_network.node[39].content_store 	p_hit[39] 	0.2875865479723
scalar tree_4_3_u09_r11_network.node[39].content_store 	hits[39] 	3489
scalar tree_4_3_u09_r11_network.node[39].content_store 	misses[39] 	8643
scalar tree_4_3_u09_r11_network.node[39].content_store 	decision_yes[39] 	127
scalar tree_4_3_u09_r11_network.node[39].content_store 	decision_no[39] 	8516
scalar tree_4_3_u09_r11_network.node[39].content_store 	decision_ratio[39] 	0.014693972000463
scalar tree_4_3_u09_r11_network.client[13] 	hdistance[13] 	2.7057796257796
scalar tree_4_3_u09_r11_network.client[13] 	downloads[13] 	12025
scalar tree_4_3_u09_r11_network.client[13] 	avg_time[13] 	0.004242159137
scalar tree_4_3_u09_r11_network.client[14] 	hdistance[14] 	2.6623724276393
scalar tree_4_3_u09_r11_network.client[14] 	downloads[14] 	11954
scalar tree_4_3_u09_r11_network.client[14] 	avg_time[14] 	0.004197587745
scalar tree_4_3_u09_r11_network.client[15] 	hdistance[15] 	2.6460949846128
scalar tree_4_3_u09_r11_network.client[15] 	downloads[15] 	12023
scalar tree_4_3_u09_r11_network.client[15] 	avg_time[15] 	0.00416335055
scalar tree_4_3_u09_r11_network.client[16] 	hdistance[16] 	2.6162547130289
scalar tree_4_3_u09_r11_network.client[16] 	downloads[16] 	11935
scalar tree_4_3_u09_r11_network.client[16] 	avg_time[16] 	0.004130181377
scalar tree_4_3_u09_r11_network.client[17] 	hdistance[17] 	2.6853848706038
scalar tree_4_3_u09_r11_network.client[17] 	downloads[17] 	12056
scalar tree_4_3_u09_r11_network.client[17] 	avg_time[17] 	0.00425215358
scalar tree_4_3_u09_r11_network.client[18] 	hdistance[18] 	2.6275187104203
scalar tree_4_3_u09_r11_network.client[18] 	downloads[18] 	12159
scalar tree_4_3_u09_r11_network.client[18] 	avg_time[18] 	0.00414129149
scalar tree_4_3_u09_r11_network.client[19] 	hdistance[19] 	2.6367994709869
scalar tree_4_3_u09_r11_network.client[19] 	downloads[19] 	12098
scalar tree_4_3_u09_r11_network.client[19] 	avg_time[19] 	0.004153410752
scalar tree_4_3_u09_r11_network.client[20] 	hdistance[20] 	2.6108783104257
scalar tree_4_3_u09_r11_network.client[20] 	downloads[20] 	11932
scalar tree_4_3_u09_r11_network.client[20] 	avg_time[20] 	0.004120178061
scalar tree_4_3_u09_r11_network.client[21] 	hdistance[21] 	2.6786811726601
scalar tree_4_3_u09_r11_network.client[21] 	downloads[21] 	12041
scalar tree_4_3_u09_r11_network.client[21] 	avg_time[21] 	0.004240010252
scalar tree_4_3_u09_r11_network.client[22] 	hdistance[22] 	2.6742747261935
scalar tree_4_3_u09_r11_network.client[22] 	downloads[22] 	11961
scalar tree_4_3_u09_r11_network.client[22] 	avg_time[22] 	0.004242951881
scalar tree_4_3_u09_r11_network.client[23] 	hdistance[23] 	2.6353295416527
scalar tree_4_3_u09_r11_network.client[23] 	downloads[23] 	11956
scalar tree_4_3_u09_r11_network.client[23] 	avg_time[23] 	0.004158798434
scalar tree_4_3_u09_r11_network.client[24] 	hdistance[24] 	2.627571152716
scalar tree_4_3_u09_r11_network.client[24] 	downloads[24] 	11911
scalar tree_4_3_u09_r11_network.client[24] 	avg_time[24] 	0.004152461124
scalar tree_4_3_u09_r11_network.client[25] 	hdistance[25] 	2.6316914727407
scalar tree_4_3_u09_r11_network.client[25] 	downloads[25] 	12161
scalar tree_4_3_u09_r11_network.client[25] 	avg_time[25] 	0.004142760118
scalar tree_4_3_u09_r11_network.client[26] 	hdistance[26] 	2.7131500496853
scalar tree_4_3_u09_r11_network.client[26] 	downloads[26] 	12076
scalar tree_4_3_u09_r11_network.client[26] 	avg_time[26] 	0.004280381682
scalar tree_4_3_u09_r11_network.client[27] 	hdistance[27] 	2.6216283716284
scalar tree_4_3_u09_r11_network.client[27] 	downloads[27] 	12012
scalar tree_4_3_u09_r11_network.client[27] 	avg_time[27] 	0.004132391704
scalar tree_4_3_u09_r11_network.client[28] 	hdistance[28] 	2.5943917525773
scalar tree_4_3_u09_r11_network.client[28] 	downloads[28] 	12125
scalar tree_4_3_u09_r11_network.client[28] 	avg_time[28] 	0.004099208831
scalar tree_4_3_u09_r11_network.client[29] 	hdistance[29] 	2.6624298448333
scalar tree_4_3_u09_r11_network.client[29] 	downloads[29] 	12116
scalar tree_4_3_u09_r11_network.client[29] 	avg_time[29] 	0.004208976843
scalar tree_4_3_u09_r11_network.client[30] 	hdistance[30] 	2.6916407104975
scalar tree_4_3_u09_r11_network.client[30] 	downloads[30] 	11879
scalar tree_4_3_u09_r11_network.client[30] 	avg_time[30] 	0.004258099594
scalar tree_4_3_u09_r11_network.client[31] 	hdistance[31] 	2.6970297029703
scalar tree_4_3_u09_r11_network.client[31] 	downloads[31] 	12120
scalar tree_4_3_u09_r11_network.client[31] 	avg_time[31] 	0.004234815453
scalar tree_4_3_u09_r11_network.client[32] 	hdistance[32] 	2.6261580836324
scalar tree_4_3_u09_r11_network.client[32] 	downloads[32] 	11981
scalar tree_4_3_u09_r11_network.client[32] 	avg_time[32] 	0.004144726155
scalar tree_4_3_u09_r11_network.client[33] 	hdistance[33] 	2.6517264276228
scalar tree_4_3_u09_r11_network.client[33] 	downloads[33] 	12048
scalar tree_4_3_u09_r11_network.client[33] 	avg_time[33] 	0.004134625151
scalar tree_4_3_u09_r11_network.client[34] 	hdistance[34] 	2.6153655718766
scalar tree_4_3_u09_r11_network.client[34] 	downloads[34] 	12118
scalar tree_4_3_u09_r11_network.client[34] 	avg_time[34] 	0.004137148299
scalar tree_4_3_u09_r11_network.client[35] 	hdistance[35] 	2.7119470855725
scalar tree_4_3_u09_r11_network.client[35] 	downloads[35] 	12095
scalar tree_4_3_u09_r11_network.client[35] 	avg_time[35] 	0.004300617075
scalar tree_4_3_u09_r11_network.client[36] 	hdistance[36] 	2.616095976006
scalar tree_4_3_u09_r11_network.client[36] 	downloads[36] 	12003
scalar tree_4_3_u09_r11_network.client[36] 	avg_time[36] 	0.00411296878
scalar tree_4_3_u09_r11_network.client[37] 	hdistance[37] 	2.6444407677035
scalar tree_4_3_u09_r11_network.client[37] 	downloads[37] 	12088
scalar tree_4_3_u09_r11_network.client[37] 	avg_time[37] 	0.004128719655
scalar tree_4_3_u09_r11_network.client[38] 	hdistance[38] 	2.5856210244392
scalar tree_4_3_u09_r11_network.client[38] 	downloads[38] 	11948
scalar tree_4_3_u09_r11_network.client[38] 	avg_time[38] 	0.004063103807
scalar tree_4_3_u09_r11_network.client[39] 	hdistance[39] 	2.6536701135786
scalar tree_4_3_u09_r11_network.client[39] 	downloads[39] 	11798
scalar tree_4_3_u09_r11_network.client[39] 	avg_time[39] 	0.004157820432
