version 2
run General-193-20160902-16:26:52-7280
attr a 0.9
attr cd wfc0.01
attr configname General
attr cr lru
attr datetime 20160902-16:26:52
attr experiment General
attr fsize 1
attr inifile hw5115/scenario_Y/omnetp.ini
attr iterationvars "$name=tree_4_3, $un=09, $rep=14, $cd=wfc0.01, $cr=lru, $fsize=1, $a=0.9, $sl=nrr, $ttl=1000, $variance=0.05"
attr iterationvars2 "$name=tree_4_3, $un=09, $rep=14, $cd=wfc0.01, $cr=lru, $fsize=1, $a=0.9, $sl=nrr, $ttl=1000, $variance=0.05, $repetition=0"
attr measurement "$name=tree_4_3, $un=09, $rep=14, $cd=wfc0.01, $cr=lru, $fsize=1, $a=0.9, $sl=nrr, $ttl=1000, $variance=0.05"
attr name tree_4_3
attr network networks.${name}_u${un}_r${rep}_network
attr processid 7280
attr rep 14
attr repetition 0
attr replication #0
attr resultdir results
attr runnumber 193
attr seedset 14
attr sl nrr
attr ttl 1000
attr un 09
attr variance 0.05

scalar . 	a 	0.9
scalar . 	fsize 	1
scalar . 	rep 	14
scalar . 	ttl 	1000
scalar . 	un 	09
scalar . 	variance 	0.05
scalar tree_4_3_u09_r14_network.content_distribution 	repo-0 	0
scalar tree_4_3_u09_r14_network.content_distribution 	client-0 	13
scalar tree_4_3_u09_r14_network.content_distribution 	client-1 	14
scalar tree_4_3_u09_r14_network.content_distribution 	client-2 	15
scalar tree_4_3_u09_r14_network.content_distribution 	client-3 	16
scalar tree_4_3_u09_r14_network.content_distribution 	client-4 	17
scalar tree_4_3_u09_r14_network.content_distribution 	client-5 	18
scalar tree_4_3_u09_r14_network.content_distribution 	client-6 	19
scalar tree_4_3_u09_r14_network.content_distribution 	client-7 	20
scalar tree_4_3_u09_r14_network.content_distribution 	client-8 	21
scalar tree_4_3_u09_r14_network.content_distribution 	client-9 	22
scalar tree_4_3_u09_r14_network.content_distribution 	client-10 	23
scalar tree_4_3_u09_r14_network.content_distribution 	client-11 	24
scalar tree_4_3_u09_r14_network.content_distribution 	client-12 	25
scalar tree_4_3_u09_r14_network.content_distribution 	client-13 	26
scalar tree_4_3_u09_r14_network.content_distribution 	client-14 	27
scalar tree_4_3_u09_r14_network.content_distribution 	client-15 	28
scalar tree_4_3_u09_r14_network.content_distribution 	client-16 	29
scalar tree_4_3_u09_r14_network.content_distribution 	client-17 	30
scalar tree_4_3_u09_r14_network.content_distribution 	client-18 	31
scalar tree_4_3_u09_r14_network.content_distribution 	client-19 	32
scalar tree_4_3_u09_r14_network.content_distribution 	client-20 	33
scalar tree_4_3_u09_r14_network.content_distribution 	client-21 	34
scalar tree_4_3_u09_r14_network.content_distribution 	client-22 	35
scalar tree_4_3_u09_r14_network.content_distribution 	client-23 	36
scalar tree_4_3_u09_r14_network.content_distribution 	client-24 	37
scalar tree_4_3_u09_r14_network.content_distribution 	client-25 	38
scalar tree_4_3_u09_r14_network.content_distribution 	client-26 	39
scalar tree_4_3_u09_r14_network.content_distribution 	repo-0_card 	100000
scalar tree_4_3_u09_r14_network.content_distribution 	repo-0_price 	0
scalar tree_4_3_u09_r14_network.statistics 	stabilization_time 	1075.7
scalar tree_4_3_u09_r14_network.statistics 	p_hit 	0.23802635687344
scalar tree_4_3_u09_r14_network.statistics 	interests 	24985.175
scalar tree_4_3_u09_r14_network.statistics 	data 	16886.6
scalar tree_4_3_u09_r14_network.statistics 	hdistance 	2.6515538558446
scalar tree_4_3_u09_r14_network.statistics 	avg_time 	0.004170444126
scalar tree_4_3_u09_r14_network.statistics 	downloads 	323931
scalar tree_4_3_u09_r14_network.statistics 	total_cost 	0
scalar tree_4_3_u09_r14_network.statistics 	total_replicas 	100000
scalar tree_4_3_u09_r14_network.statistics 	inner_hit 	0.4336942126564
scalar tree_4_3_u09_r14_network.node[0].core_layer 	interests[0] 	185576
scalar tree_4_3_u09_r14_network.node[0].core_layer 	repo_load[0] 	183444
scalar tree_4_3_u09_r14_network.node[0].core_layer 	data[0] 	0
scalar tree_4_3_u09_r14_network.node[0].core_layer 	repo_int[0] 	183444
scalar tree_4_3_u09_r14_network.node[0].content_store 	p_hit[0] 	0.011488554554468
scalar tree_4_3_u09_r14_network.node[0].content_store 	hits[0] 	2132
scalar tree_4_3_u09_r14_network.node[0].content_store 	misses[0] 	183444
scalar tree_4_3_u09_r14_network.node[0].content_store 	decision_yes[0] 	2743
scalar tree_4_3_u09_r14_network.node[0].content_store 	decision_no[0] 	180701
scalar tree_4_3_u09_r14_network.node[0].content_store 	decision_ratio[0] 	0.014952792132749
scalar tree_4_3_u09_r14_network.node[1].core_layer 	interests[1] 	140517
scalar tree_4_3_u09_r14_network.node[1].core_layer 	data[1] 	138567
scalar tree_4_3_u09_r14_network.node[1].content_store 	p_hit[1] 	0.013841741568636
scalar tree_4_3_u09_r14_network.node[1].content_store 	hits[1] 	1945
scalar tree_4_3_u09_r14_network.node[1].content_store 	misses[1] 	138572
scalar tree_4_3_u09_r14_network.node[1].content_store 	decision_yes[1] 	1567
scalar tree_4_3_u09_r14_network.node[1].content_store 	decision_no[1] 	137000
scalar tree_4_3_u09_r14_network.node[1].content_store 	decision_ratio[1] 	0.011308608831829
scalar tree_4_3_u09_r14_network.node[2].core_layer 	interests[2] 	30810
scalar tree_4_3_u09_r14_network.node[2].core_layer 	data[2] 	29536
scalar tree_4_3_u09_r14_network.node[2].content_store 	p_hit[2] 	0.041350210970464
scalar tree_4_3_u09_r14_network.node[2].content_store 	hits[2] 	1274
scalar tree_4_3_u09_r14_network.node[2].content_store 	misses[2] 	29536
scalar tree_4_3_u09_r14_network.node[2].content_store 	decision_yes[2] 	317
scalar tree_4_3_u09_r14_network.node[2].content_store 	decision_no[2] 	29219
scalar tree_4_3_u09_r14_network.node[2].content_store 	decision_ratio[2] 	0.010732665222102
scalar tree_4_3_u09_r14_network.node[3].core_layer 	interests[3] 	37854
scalar tree_4_3_u09_r14_network.node[3].core_layer 	data[3] 	34272
scalar tree_4_3_u09_r14_network.node[3].content_store 	p_hit[3] 	0.094573889153062
scalar tree_4_3_u09_r14_network.node[3].content_store 	hits[3] 	3580
scalar tree_4_3_u09_r14_network.node[3].content_store 	misses[3] 	34274
scalar tree_4_3_u09_r14_network.node[3].content_store 	decision_yes[3] 	602
scalar tree_4_3_u09_r14_network.node[3].content_store 	decision_no[3] 	33670
scalar tree_4_3_u09_r14_network.node[3].content_store 	decision_ratio[3] 	0.017565359477124
scalar tree_4_3_u09_r14_network.node[4].core_layer 	interests[4] 	43281
scalar tree_4_3_u09_r14_network.node[4].core_layer 	data[4] 	40796
scalar tree_4_3_u09_r14_network.node[4].content_store 	p_hit[4] 	0.057415494096717
scalar tree_4_3_u09_r14_network.node[4].content_store 	hits[4] 	2485
scalar tree_4_3_u09_r14_network.node[4].content_store 	misses[4] 	40796
scalar tree_4_3_u09_r14_network.node[4].content_store 	decision_yes[4] 	574
scalar tree_4_3_u09_r14_network.node[4].content_store 	decision_no[4] 	40222
scalar tree_4_3_u09_r14_network.node[4].content_store 	decision_ratio[4] 	0.014070006863418
scalar tree_4_3_u09_r14_network.node[5].core_layer 	interests[5] 	27304
scalar tree_4_3_u09_r14_network.node[5].core_layer 	data[5] 	24594
scalar tree_4_3_u09_r14_network.node[5].content_store 	p_hit[5] 	0.099252856724289
scalar tree_4_3_u09_r14_network.node[5].content_store 	hits[5] 	2710
scalar tree_4_3_u09_r14_network.node[5].content_store 	misses[5] 	24594
scalar tree_4_3_u09_r14_network.node[5].content_store 	decision_yes[5] 	382
scalar tree_4_3_u09_r14_network.node[5].content_store 	decision_no[5] 	24212
scalar tree_4_3_u09_r14_network.node[5].content_store 	decision_ratio[5] 	0.015532243636659
scalar tree_4_3_u09_r14_network.node[6].core_layer 	interests[6] 	15601
scalar tree_4_3_u09_r14_network.node[6].core_layer 	data[6] 	11671
scalar tree_4_3_u09_r14_network.node[6].content_store 	p_hit[6] 	0.25190692904301
scalar tree_4_3_u09_r14_network.node[6].content_store 	hits[6] 	3930
scalar tree_4_3_u09_r14_network.node[6].content_store 	misses[6] 	11671
scalar tree_4_3_u09_r14_network.node[6].content_store 	decision_yes[6] 	421
scalar tree_4_3_u09_r14_network.node[6].content_store 	decision_no[6] 	11250
scalar tree_4_3_u09_r14_network.node[6].content_store 	decision_ratio[6] 	0.036072315996915
scalar tree_4_3_u09_r14_network.node[7].core_layer 	interests[7] 	44356
scalar tree_4_3_u09_r14_network.node[7].core_layer 	data[7] 	41313
scalar tree_4_3_u09_r14_network.node[7].content_store 	p_hit[7] 	0.068536387410948
scalar tree_4_3_u09_r14_network.node[7].content_store 	hits[7] 	3040
scalar tree_4_3_u09_r14_network.node[7].content_store 	misses[7] 	41316
scalar tree_4_3_u09_r14_network.node[7].content_store 	decision_yes[7] 	639
scalar tree_4_3_u09_r14_network.node[7].content_store 	decision_no[7] 	40674
scalar tree_4_3_u09_r14_network.node[7].content_store 	decision_ratio[7] 	0.015467286326338
scalar tree_4_3_u09_r14_network.node[8].core_layer 	interests[8] 	26184
scalar tree_4_3_u09_r14_network.node[8].core_layer 	data[8] 	24029
scalar tree_4_3_u09_r14_network.node[8].content_store 	p_hit[8] 	0.082302169263672
scalar tree_4_3_u09_r14_network.node[8].content_store 	hits[8] 	2155
scalar tree_4_3_u09_r14_network.node[8].content_store 	misses[8] 	24029
scalar tree_4_3_u09_r14_network.node[8].content_store 	decision_yes[8] 	333
scalar tree_4_3_u09_r14_network.node[8].content_store 	decision_no[8] 	23696
scalar tree_4_3_u09_r14_network.node[8].content_store 	decision_ratio[8] 	0.013858254609014
scalar tree_4_3_u09_r14_network.node[9].core_layer 	interests[9] 	15244
scalar tree_4_3_u09_r14_network.node[9].core_layer 	data[9] 	11945
scalar tree_4_3_u09_r14_network.node[9].content_store 	p_hit[9] 	0.2164130149567
scalar tree_4_3_u09_r14_network.node[9].content_store 	hits[9] 	3299
scalar tree_4_3_u09_r14_network.node[9].content_store 	misses[9] 	11945
scalar tree_4_3_u09_r14_network.node[9].content_store 	decision_yes[9] 	417
scalar tree_4_3_u09_r14_network.node[9].content_store 	decision_no[9] 	11528
scalar tree_4_3_u09_r14_network.node[9].content_store 	decision_ratio[9] 	0.034910004185852
scalar tree_4_3_u09_r14_network.node[10].core_layer 	interests[10] 	45727
scalar tree_4_3_u09_r14_network.node[10].core_layer 	data[10] 	42411
scalar tree_4_3_u09_r14_network.node[10].content_store 	p_hit[10] 	0.072495462199576
scalar tree_4_3_u09_r14_network.node[10].content_store 	hits[10] 	3315
scalar tree_4_3_u09_r14_network.node[10].content_store 	misses[10] 	42412
scalar tree_4_3_u09_r14_network.node[10].content_store 	decision_yes[10] 	705
scalar tree_4_3_u09_r14_network.node[10].content_store 	decision_no[10] 	41706
scalar tree_4_3_u09_r14_network.node[10].content_store 	decision_ratio[10] 	0.016623045907901
scalar tree_4_3_u09_r14_network.node[11].core_layer 	interests[11] 	27894
scalar tree_4_3_u09_r14_network.node[11].core_layer 	data[11] 	25372
scalar tree_4_3_u09_r14_network.node[11].content_store 	p_hit[11] 	0.090413709041371
scalar tree_4_3_u09_r14_network.node[11].content_store 	hits[11] 	2522
scalar tree_4_3_u09_r14_network.node[11].content_store 	misses[11] 	25372
scalar tree_4_3_u09_r14_network.node[11].content_store 	decision_yes[11] 	409
scalar tree_4_3_u09_r14_network.node[11].content_store 	decision_no[11] 	24963
scalar tree_4_3_u09_r14_network.node[11].content_store 	decision_ratio[11] 	0.01612013242945
scalar tree_4_3_u09_r14_network.node[12].core_layer 	interests[12] 	12580
scalar tree_4_3_u09_r14_network.node[12].core_layer 	data[12] 	9587
scalar tree_4_3_u09_r14_network.node[12].content_store 	p_hit[12] 	0.2379173290938
scalar tree_4_3_u09_r14_network.node[12].content_store 	hits[12] 	2993
scalar tree_4_3_u09_r14_network.node[12].content_store 	misses[12] 	9587
scalar tree_4_3_u09_r14_network.node[12].content_store 	decision_yes[12] 	221
scalar tree_4_3_u09_r14_network.node[12].content_store 	decision_no[12] 	9366
scalar tree_4_3_u09_r14_network.node[12].content_store 	decision_ratio[12] 	0.023052049650568
scalar tree_4_3_u09_r14_network.node[13].core_layer 	interests[13] 	12737
scalar tree_4_3_u09_r14_network.node[13].core_layer 	data[13] 	8948
scalar tree_4_3_u09_r14_network.node[13].content_store 	p_hit[13] 	0.29747978330847
scalar tree_4_3_u09_r14_network.node[13].content_store 	hits[13] 	3789
scalar tree_4_3_u09_r14_network.node[13].content_store 	misses[13] 	8948
scalar tree_4_3_u09_r14_network.node[13].content_store 	decision_yes[13] 	96
scalar tree_4_3_u09_r14_network.node[13].content_store 	decision_no[13] 	8852
scalar tree_4_3_u09_r14_network.node[13].content_store 	decision_ratio[13] 	0.010728654447921
scalar tree_4_3_u09_r14_network.node[14].core_layer 	interests[14] 	13048
scalar tree_4_3_u09_r14_network.node[14].core_layer 	data[14] 	8976
scalar tree_4_3_u09_r14_network.node[14].content_store 	p_hit[14] 	0.31207847946045
scalar tree_4_3_u09_r14_network.node[14].content_store 	hits[14] 	4072
scalar tree_4_3_u09_r14_network.node[14].content_store 	misses[14] 	8976
scalar tree_4_3_u09_r14_network.node[14].content_store 	decision_yes[14] 	127
scalar tree_4_3_u09_r14_network.node[14].content_store 	decision_no[14] 	8849
scalar tree_4_3_u09_r14_network.node[14].content_store 	decision_ratio[14] 	0.014148841354724
scalar tree_4_3_u09_r14_network.node[15].core_layer 	interests[15] 	13076
scalar tree_4_3_u09_r14_network.node[15].core_layer 	data[15] 	8987
scalar tree_4_3_u09_r14_network.node[15].content_store 	p_hit[15] 	0.31271030896299
scalar tree_4_3_u09_r14_network.node[15].content_store 	hits[15] 	4089
scalar tree_4_3_u09_r14_network.node[15].content_store 	misses[15] 	8987
scalar tree_4_3_u09_r14_network.node[15].content_store 	decision_yes[15] 	160
scalar tree_4_3_u09_r14_network.node[15].content_store 	decision_no[15] 	8827
scalar tree_4_3_u09_r14_network.node[15].content_store 	decision_ratio[15] 	0.017803493935685
scalar tree_4_3_u09_r14_network.node[16].core_layer 	interests[16] 	13059
scalar tree_4_3_u09_r14_network.node[16].core_layer 	data[16] 	8898
scalar tree_4_3_u09_r14_network.node[16].content_store 	p_hit[16] 	0.31847767822957
scalar tree_4_3_u09_r14_network.node[16].content_store 	hits[16] 	4159
scalar tree_4_3_u09_r14_network.node[16].content_store 	misses[16] 	8900
scalar tree_4_3_u09_r14_network.node[16].content_store 	decision_yes[16] 	115
scalar tree_4_3_u09_r14_network.node[16].content_store 	decision_no[16] 	8783
scalar tree_4_3_u09_r14_network.node[16].content_store 	decision_ratio[16] 	0.012924252641043
scalar tree_4_3_u09_r14_network.node[17].core_layer 	interests[17] 	12249
scalar tree_4_3_u09_r14_network.node[17].core_layer 	data[17] 	8759
scalar tree_4_3_u09_r14_network.node[17].content_store 	p_hit[17] 	0.28492121805862
scalar tree_4_3_u09_r14_network.node[17].content_store 	hits[17] 	3490
scalar tree_4_3_u09_r14_network.node[17].content_store 	misses[17] 	8759
scalar tree_4_3_u09_r14_network.node[17].content_store 	decision_yes[17] 	106
scalar tree_4_3_u09_r14_network.node[17].content_store 	decision_no[17] 	8653
scalar tree_4_3_u09_r14_network.node[17].content_store 	decision_ratio[17] 	0.012101838109373
scalar tree_4_3_u09_r14_network.node[18].core_layer 	interests[18] 	12970
scalar tree_4_3_u09_r14_network.node[18].core_layer 	data[18] 	8920
scalar tree_4_3_u09_r14_network.node[18].content_store 	p_hit[18] 	0.31225905936777
scalar tree_4_3_u09_r14_network.node[18].content_store 	hits[18] 	4050
scalar tree_4_3_u09_r14_network.node[18].content_store 	misses[18] 	8920
scalar tree_4_3_u09_r14_network.node[18].content_store 	decision_yes[18] 	141
scalar tree_4_3_u09_r14_network.node[18].content_store 	decision_no[18] 	8779
scalar tree_4_3_u09_r14_network.node[18].content_store 	decision_ratio[18] 	0.015807174887892
scalar tree_4_3_u09_r14_network.node[19].core_layer 	interests[19] 	13100
scalar tree_4_3_u09_r14_network.node[19].core_layer 	data[19] 	8927
scalar tree_4_3_u09_r14_network.node[19].content_store 	p_hit[19] 	0.31854961832061
scalar tree_4_3_u09_r14_network.node[19].content_store 	hits[19] 	4173
scalar tree_4_3_u09_r14_network.node[19].content_store 	misses[19] 	8927
scalar tree_4_3_u09_r14_network.node[19].content_store 	decision_yes[19] 	131
scalar tree_4_3_u09_r14_network.node[19].content_store 	decision_no[19] 	8796
scalar tree_4_3_u09_r14_network.node[19].content_store 	decision_ratio[19] 	0.01467458272656
scalar tree_4_3_u09_r14_network.node[20].core_layer 	interests[20] 	12978
scalar tree_4_3_u09_r14_network.node[20].core_layer 	data[20] 	8898
scalar tree_4_3_u09_r14_network.node[20].content_store 	p_hit[20] 	0.31430112498074
scalar tree_4_3_u09_r14_network.node[20].content_store 	hits[20] 	4079
scalar tree_4_3_u09_r14_network.node[20].content_store 	misses[20] 	8899
scalar tree_4_3_u09_r14_network.node[20].content_store 	decision_yes[20] 	134
scalar tree_4_3_u09_r14_network.node[20].content_store 	decision_no[20] 	8764
scalar tree_4_3_u09_r14_network.node[20].content_store 	decision_ratio[20] 	0.015059563946954
scalar tree_4_3_u09_r14_network.node[21].core_layer 	interests[21] 	12418
scalar tree_4_3_u09_r14_network.node[21].core_layer 	data[21] 	8873
scalar tree_4_3_u09_r14_network.node[21].content_store 	p_hit[21] 	0.28531164438718
scalar tree_4_3_u09_r14_network.node[21].content_store 	hits[21] 	3543
scalar tree_4_3_u09_r14_network.node[21].content_store 	misses[21] 	8875
scalar tree_4_3_u09_r14_network.node[21].content_store 	decision_yes[21] 	119
scalar tree_4_3_u09_r14_network.node[21].content_store 	decision_no[21] 	8754
scalar tree_4_3_u09_r14_network.node[21].content_store 	decision_ratio[21] 	0.013411473008002
scalar tree_4_3_u09_r14_network.node[22].core_layer 	interests[22] 	12463
scalar tree_4_3_u09_r14_network.node[22].core_layer 	data[22] 	8889
scalar tree_4_3_u09_r14_network.node[22].content_store 	p_hit[22] 	0.28668859825082
scalar tree_4_3_u09_r14_network.node[22].content_store 	hits[22] 	3573
scalar tree_4_3_u09_r14_network.node[22].content_store 	misses[22] 	8890
scalar tree_4_3_u09_r14_network.node[22].content_store 	decision_yes[22] 	115
scalar tree_4_3_u09_r14_network.node[22].content_store 	decision_no[22] 	8774
scalar tree_4_3_u09_r14_network.node[22].content_store 	decision_ratio[22] 	0.012937338283271
scalar tree_4_3_u09_r14_network.node[23].core_layer 	interests[23] 	13017
scalar tree_4_3_u09_r14_network.node[23].core_layer 	data[23] 	8967
scalar tree_4_3_u09_r14_network.node[23].content_store 	p_hit[23] 	0.3111315971422
scalar tree_4_3_u09_r14_network.node[23].content_store 	hits[23] 	4050
scalar tree_4_3_u09_r14_network.node[23].content_store 	misses[23] 	8967
scalar tree_4_3_u09_r14_network.node[23].content_store 	decision_yes[23] 	129
scalar tree_4_3_u09_r14_network.node[23].content_store 	decision_no[23] 	8838
scalar tree_4_3_u09_r14_network.node[23].content_store 	decision_ratio[23] 	0.014386082301773
scalar tree_4_3_u09_r14_network.node[24].core_layer 	interests[24] 	13025
scalar tree_4_3_u09_r14_network.node[24].core_layer 	data[24] 	8902
scalar tree_4_3_u09_r14_network.node[24].content_store 	p_hit[24] 	0.31654510556622
scalar tree_4_3_u09_r14_network.node[24].content_store 	hits[24] 	4123
scalar tree_4_3_u09_r14_network.node[24].content_store 	misses[24] 	8902
scalar tree_4_3_u09_r14_network.node[24].content_store 	decision_yes[24] 	147
scalar tree_4_3_u09_r14_network.node[24].content_store 	decision_no[24] 	8755
scalar tree_4_3_u09_r14_network.node[24].content_store 	decision_ratio[24] 	0.016513143113907
scalar tree_4_3_u09_r14_network.node[25].core_layer 	interests[25] 	13011
scalar tree_4_3_u09_r14_network.node[25].core_layer 	data[25] 	8959
scalar tree_4_3_u09_r14_network.node[25].content_store 	p_hit[25] 	0.31135193297979
scalar tree_4_3_u09_r14_network.node[25].content_store 	hits[25] 	4051
scalar tree_4_3_u09_r14_network.node[25].content_store 	misses[25] 	8960
scalar tree_4_3_u09_r14_network.node[25].content_store 	decision_yes[25] 	130
scalar tree_4_3_u09_r14_network.node[25].content_store 	decision_no[25] 	8829
scalar tree_4_3_u09_r14_network.node[25].content_store 	decision_ratio[25] 	0.014510548052238
scalar tree_4_3_u09_r14_network.node[26].core_layer 	interests[26] 	12407
scalar tree_4_3_u09_r14_network.node[26].core_layer 	data[26] 	8883
scalar tree_4_3_u09_r14_network.node[26].content_store 	p_hit[26] 	0.28403320706053
scalar tree_4_3_u09_r14_network.node[26].content_store 	hits[26] 	3524
scalar tree_4_3_u09_r14_network.node[26].content_store 	misses[26] 	8883
scalar tree_4_3_u09_r14_network.node[26].content_store 	decision_yes[26] 	110
scalar tree_4_3_u09_r14_network.node[26].content_store 	decision_no[26] 	8773
scalar tree_4_3_u09_r14_network.node[26].content_store 	decision_ratio[26] 	0.012383203872566
scalar tree_4_3_u09_r14_network.node[27].core_layer 	interests[27] 	12939
scalar tree_4_3_u09_r14_network.node[27].core_layer 	data[27] 	9046
scalar tree_4_3_u09_r14_network.node[27].content_store 	p_hit[27] 	0.30087332869619
scalar tree_4_3_u09_r14_network.node[27].content_store 	hits[27] 	3893
scalar tree_4_3_u09_r14_network.node[27].content_store 	misses[27] 	9046
scalar tree_4_3_u09_r14_network.node[27].content_store 	decision_yes[27] 	152
scalar tree_4_3_u09_r14_network.node[27].content_store 	decision_no[27] 	8894
scalar tree_4_3_u09_r14_network.node[27].content_store 	decision_ratio[27] 	0.016803006853858
scalar tree_4_3_u09_r14_network.node[28].core_layer 	interests[28] 	13087
scalar tree_4_3_u09_r14_network.node[28].core_layer 	data[28] 	8938
scalar tree_4_3_u09_r14_network.node[28].content_store 	p_hit[28] 	0.31695575762207
scalar tree_4_3_u09_r14_network.node[28].content_store 	hits[28] 	4148
scalar tree_4_3_u09_r14_network.node[28].content_store 	misses[28] 	8939
scalar tree_4_3_u09_r14_network.node[28].content_store 	decision_yes[28] 	137
scalar tree_4_3_u09_r14_network.node[28].content_store 	decision_no[28] 	8801
scalar tree_4_3_u09_r14_network.node[28].content_store 	decision_ratio[28] 	0.015327813828597
scalar tree_4_3_u09_r14_network.node[29].core_layer 	interests[29] 	12984
scalar tree_4_3_u09_r14_network.node[29].core_layer 	data[29] 	9092
scalar tree_4_3_u09_r14_network.node[29].content_store 	p_hit[29] 	0.29975354282193
scalar tree_4_3_u09_r14_network.node[29].content_store 	hits[29] 	3892
scalar tree_4_3_u09_r14_network.node[29].content_store 	misses[29] 	9092
scalar tree_4_3_u09_r14_network.node[29].content_store 	decision_yes[29] 	138
scalar tree_4_3_u09_r14_network.node[29].content_store 	decision_no[29] 	8954
scalar tree_4_3_u09_r14_network.node[29].content_store 	decision_ratio[29] 	0.015178178618566
scalar tree_4_3_u09_r14_network.node[30].core_layer 	interests[30] 	12381
scalar tree_4_3_u09_r14_network.node[30].core_layer 	data[30] 	8941
scalar tree_4_3_u09_r14_network.node[30].content_store 	p_hit[30] 	0.27784508521121
scalar tree_4_3_u09_r14_network.node[30].content_store 	hits[30] 	3440
scalar tree_4_3_u09_r14_network.node[30].content_store 	misses[30] 	8941
scalar tree_4_3_u09_r14_network.node[30].content_store 	decision_yes[30] 	113
scalar tree_4_3_u09_r14_network.node[30].content_store 	decision_no[30] 	8828
scalar tree_4_3_u09_r14_network.node[30].content_store 	decision_ratio[30] 	0.012638407336987
scalar tree_4_3_u09_r14_network.node[31].core_layer 	interests[31] 	12875
scalar tree_4_3_u09_r14_network.node[31].core_layer 	data[31] 	9109
scalar tree_4_3_u09_r14_network.node[31].content_store 	p_hit[31] 	0.29242718446602
scalar tree_4_3_u09_r14_network.node[31].content_store 	hits[31] 	3765
scalar tree_4_3_u09_r14_network.node[31].content_store 	misses[31] 	9110
scalar tree_4_3_u09_r14_network.node[31].content_store 	decision_yes[31] 	96
scalar tree_4_3_u09_r14_network.node[31].content_store 	decision_no[31] 	9013
scalar tree_4_3_u09_r14_network.node[31].content_store 	decision_ratio[31] 	0.010539027335602
scalar tree_4_3_u09_r14_network.node[32].core_layer 	interests[32] 	13065
scalar tree_4_3_u09_r14_network.node[32].core_layer 	data[32] 	8976
scalar tree_4_3_u09_r14_network.node[32].content_store 	p_hit[32] 	0.31297359357061
scalar tree_4_3_u09_r14_network.node[32].content_store 	hits[32] 	4089
scalar tree_4_3_u09_r14_network.node[32].content_store 	misses[32] 	8976
scalar tree_4_3_u09_r14_network.node[32].content_store 	decision_yes[32] 	126
scalar tree_4_3_u09_r14_network.node[32].content_store 	decision_no[32] 	8850
scalar tree_4_3_u09_r14_network.node[32].content_store 	decision_ratio[32] 	0.01403743315508
scalar tree_4_3_u09_r14_network.node[33].core_layer 	interests[33] 	13108
scalar tree_4_3_u09_r14_network.node[33].core_layer 	data[33] 	8971
scalar tree_4_3_u09_r14_network.node[33].content_store 	p_hit[33] 	0.31560878852609
scalar tree_4_3_u09_r14_network.node[33].content_store 	hits[33] 	4137
scalar tree_4_3_u09_r14_network.node[33].content_store 	misses[33] 	8971
scalar tree_4_3_u09_r14_network.node[33].content_store 	decision_yes[33] 	143
scalar tree_4_3_u09_r14_network.node[33].content_store 	decision_no[33] 	8828
scalar tree_4_3_u09_r14_network.node[33].content_store 	decision_ratio[33] 	0.015940251922863
scalar tree_4_3_u09_r14_network.node[34].core_layer 	interests[34] 	12928
scalar tree_4_3_u09_r14_network.node[34].core_layer 	data[34] 	8804
scalar tree_4_3_u09_r14_network.node[34].content_store 	p_hit[34] 	0.31899752475248
scalar tree_4_3_u09_r14_network.node[34].content_store 	hits[34] 	4124
scalar tree_4_3_u09_r14_network.node[34].content_store 	misses[34] 	8804
scalar tree_4_3_u09_r14_network.node[34].content_store 	decision_yes[34] 	124
scalar tree_4_3_u09_r14_network.node[34].content_store 	decision_no[34] 	8680
scalar tree_4_3_u09_r14_network.node[34].content_store 	decision_ratio[34] 	0.014084507042254
scalar tree_4_3_u09_r14_network.node[35].core_layer 	interests[35] 	12484
scalar tree_4_3_u09_r14_network.node[35].core_layer 	data[35] 	9024
scalar tree_4_3_u09_r14_network.node[35].content_store 	p_hit[35] 	0.27715475809036
scalar tree_4_3_u09_r14_network.node[35].content_store 	hits[35] 	3460
scalar tree_4_3_u09_r14_network.node[35].content_store 	misses[35] 	9024
scalar tree_4_3_u09_r14_network.node[35].content_store 	decision_yes[35] 	129
scalar tree_4_3_u09_r14_network.node[35].content_store 	decision_no[35] 	8895
scalar tree_4_3_u09_r14_network.node[35].content_store 	decision_ratio[35] 	0.014295212765957
scalar tree_4_3_u09_r14_network.node[36].core_layer 	interests[36] 	12569
scalar tree_4_3_u09_r14_network.node[36].core_layer 	data[36] 	8747
scalar tree_4_3_u09_r14_network.node[36].content_store 	p_hit[36] 	0.30408147028403
scalar tree_4_3_u09_r14_network.node[36].content_store 	hits[36] 	3822
scalar tree_4_3_u09_r14_network.node[36].content_store 	misses[36] 	8747
scalar tree_4_3_u09_r14_network.node[36].content_store 	decision_yes[36] 	136
scalar tree_4_3_u09_r14_network.node[36].content_store 	decision_no[36] 	8611
scalar tree_4_3_u09_r14_network.node[36].content_store 	decision_ratio[36] 	0.015548187950154
scalar tree_4_3_u09_r14_network.node[37].core_layer 	interests[37] 	12928
scalar tree_4_3_u09_r14_network.node[37].core_layer 	data[37] 	8995
scalar tree_4_3_u09_r14_network.node[37].content_store 	p_hit[37] 	0.30422339108911
scalar tree_4_3_u09_r14_network.node[37].content_store 	hits[37] 	3933
scalar tree_4_3_u09_r14_network.node[37].content_store 	misses[37] 	8995
scalar tree_4_3_u09_r14_network.node[37].content_store 	decision_yes[37] 	131
scalar tree_4_3_u09_r14_network.node[37].content_store 	decision_no[37] 	8864
scalar tree_4_3_u09_r14_network.node[37].content_store 	decision_ratio[37] 	0.014563646470261
scalar tree_4_3_u09_r14_network.node[38].core_layer 	interests[38] 	12988
scalar tree_4_3_u09_r14_network.node[38].core_layer 	data[38] 	8987
scalar tree_4_3_u09_r14_network.node[38].content_store 	p_hit[38] 	0.30805358792732
scalar tree_4_3_u09_r14_network.node[38].content_store 	hits[38] 	4001
scalar tree_4_3_u09_r14_network.node[38].content_store 	misses[38] 	8987
scalar tree_4_3_u09_r14_network.node[38].content_store 	decision_yes[38] 	126
scalar tree_4_3_u09_r14_network.node[38].content_store 	decision_no[38] 	8861
scalar tree_4_3_u09_r14_network.node[38].content_store 	decision_ratio[38] 	0.014020251474352
scalar tree_4_3_u09_r14_network.node[39].core_layer 	interests[39] 	12585
scalar tree_4_3_u09_r14_network.node[39].core_layer 	data[39] 	8955
scalar tree_4_3_u09_r14_network.node[39].content_store 	p_hit[39] 	0.28835915772745
scalar tree_4_3_u09_r14_network.node[39].content_store 	hits[39] 	3629
scalar tree_4_3_u09_r14_network.node[39].content_store 	misses[39] 	8956
scalar tree_4_3_u09_r14_network.node[39].content_store 	decision_yes[39] 	93
scalar tree_4_3_u09_r14_network.node[39].content_store 	decision_no[39] 	8862
scalar tree_4_3_u09_r14_network.node[39].content_store 	decision_ratio[39] 	0.010385259631491
scalar tree_4_3_u09_r14_network.client[13] 	hdistance[13] 	2.6834881236131
scalar tree_4_3_u09_r14_network.client[13] 	downloads[13] 	12167
scalar tree_4_3_u09_r14_network.client[13] 	avg_time[13] 	0.004219278624
scalar tree_4_3_u09_r14_network.client[14] 	hdistance[14] 	2.656138011501
scalar tree_4_3_u09_r14_network.client[14] 	downloads[14] 	11999
scalar tree_4_3_u09_r14_network.client[14] 	avg_time[14] 	0.004163843979
scalar tree_4_3_u09_r14_network.client[15] 	hdistance[15] 	2.6307589210923
scalar tree_4_3_u09_r14_network.client[15] 	downloads[15] 	11938
scalar tree_4_3_u09_r14_network.client[15] 	avg_time[15] 	0.00415345656
scalar tree_4_3_u09_r14_network.client[16] 	hdistance[16] 	2.6366211262912
scalar tree_4_3_u09_r14_network.client[16] 	downloads[16] 	12004
scalar tree_4_3_u09_r14_network.client[16] 	avg_time[16] 	0.004129221543
scalar tree_4_3_u09_r14_network.client[17] 	hdistance[17] 	2.7170930035575
scalar tree_4_3_u09_r14_network.client[17] 	downloads[17] 	11806
scalar tree_4_3_u09_r14_network.client[17] 	avg_time[17] 	0.004275609288
scalar tree_4_3_u09_r14_network.client[18] 	hdistance[18] 	2.5974004470569
scalar tree_4_3_u09_r14_network.client[18] 	downloads[18] 	12079
scalar tree_4_3_u09_r14_network.client[18] 	avg_time[18] 	0.004092057586
scalar tree_4_3_u09_r14_network.client[19] 	hdistance[19] 	2.6192901878914
scalar tree_4_3_u09_r14_network.client[19] 	downloads[19] 	11975
scalar tree_4_3_u09_r14_network.client[19] 	avg_time[19] 	0.004123420779
scalar tree_4_3_u09_r14_network.client[20] 	hdistance[20] 	2.6172839506173
scalar tree_4_3_u09_r14_network.client[20] 	downloads[20] 	11988
scalar tree_4_3_u09_r14_network.client[20] 	avg_time[20] 	0.004117991514
scalar tree_4_3_u09_r14_network.client[21] 	hdistance[21] 	2.6738785398045
scalar tree_4_3_u09_r14_network.client[21] 	downloads[21] 	11971
scalar tree_4_3_u09_r14_network.client[21] 	avg_time[21] 	0.004227975156
scalar tree_4_3_u09_r14_network.client[22] 	hdistance[22] 	2.6882055602359
scalar tree_4_3_u09_r14_network.client[22] 	downloads[22] 	11870
scalar tree_4_3_u09_r14_network.client[22] 	avg_time[22] 	0.004253409006
scalar tree_4_3_u09_r14_network.client[23] 	hdistance[23] 	2.6569587413173
scalar tree_4_3_u09_r14_network.client[23] 	downloads[23] 	11949
scalar tree_4_3_u09_r14_network.client[23] 	avg_time[23] 	0.004182140085
scalar tree_4_3_u09_r14_network.client[24] 	hdistance[24] 	2.6025952281289
scalar tree_4_3_u09_r14_network.client[24] 	downloads[24] 	11945
scalar tree_4_3_u09_r14_network.client[24] 	avg_time[24] 	0.004110250534
scalar tree_4_3_u09_r14_network.client[25] 	hdistance[25] 	2.6449733688415
scalar tree_4_3_u09_r14_network.client[25] 	downloads[25] 	12016
scalar tree_4_3_u09_r14_network.client[25] 	avg_time[25] 	0.004152460364
scalar tree_4_3_u09_r14_network.client[26] 	hdistance[26] 	2.7116691529919
scalar tree_4_3_u09_r14_network.client[26] 	downloads[26] 	12066
scalar tree_4_3_u09_r14_network.client[26] 	avg_time[26] 	0.004201720802
scalar tree_4_3_u09_r14_network.client[27] 	hdistance[27] 	2.6368068754649
scalar tree_4_3_u09_r14_network.client[27] 	downloads[27] 	12101
scalar tree_4_3_u09_r14_network.client[27] 	avg_time[27] 	0.004138002073
scalar tree_4_3_u09_r14_network.client[28] 	hdistance[28] 	2.6161320043555
scalar tree_4_3_u09_r14_network.client[28] 	downloads[28] 	11939
scalar tree_4_3_u09_r14_network.client[28] 	avg_time[28] 	0.004135573468
scalar tree_4_3_u09_r14_network.client[29] 	hdistance[29] 	2.6320552904394
scalar tree_4_3_u09_r14_network.client[29] 	downloads[29] 	12154
scalar tree_4_3_u09_r14_network.client[29] 	avg_time[29] 	0.004130488973
scalar tree_4_3_u09_r14_network.client[30] 	hdistance[30] 	2.7014737899849
scalar tree_4_3_u09_r14_network.client[30] 	downloads[30] 	11942
scalar tree_4_3_u09_r14_network.client[30] 	avg_time[30] 	0.004256235501
scalar tree_4_3_u09_r14_network.client[31] 	hdistance[31] 	2.6957746478873
scalar tree_4_3_u09_r14_network.client[31] 	downloads[31] 	12070
scalar tree_4_3_u09_r14_network.client[31] 	avg_time[31] 	0.004279622713
scalar tree_4_3_u09_r14_network.client[32] 	hdistance[32] 	2.639896373057
scalar tree_4_3_u09_r14_network.client[32] 	downloads[32] 	11966
scalar tree_4_3_u09_r14_network.client[32] 	avg_time[32] 	0.004168564109
scalar tree_4_3_u09_r14_network.client[33] 	hdistance[33] 	2.6038767395626
scalar tree_4_3_u09_r14_network.client[33] 	downloads[33] 	12072
scalar tree_4_3_u09_r14_network.client[33] 	avg_time[33] 	0.004101823669
scalar tree_4_3_u09_r14_network.client[34] 	hdistance[34] 	2.6251379105491
scalar tree_4_3_u09_r14_network.client[34] 	downloads[34] 	11783
scalar tree_4_3_u09_r14_network.client[34] 	avg_time[34] 	0.004145800318
scalar tree_4_3_u09_r14_network.client[35] 	hdistance[35] 	2.706630109671
scalar tree_4_3_u09_r14_network.client[35] 	downloads[35] 	12036
scalar tree_4_3_u09_r14_network.client[35] 	avg_time[35] 	0.004253905647
scalar tree_4_3_u09_r14_network.client[36] 	hdistance[36] 	2.6324274139095
scalar tree_4_3_u09_r14_network.client[36] 	downloads[36] 	11848
scalar tree_4_3_u09_r14_network.client[36] 	avg_time[36] 	0.004102968019
scalar tree_4_3_u09_r14_network.client[37] 	hdistance[37] 	2.6374885043057
scalar tree_4_3_u09_r14_network.client[37] 	downloads[37] 	11961
scalar tree_4_3_u09_r14_network.client[37] 	avg_time[37] 	0.004159013803
scalar tree_4_3_u09_r14_network.client[38] 	hdistance[38] 	2.6387719732607
scalar tree_4_3_u09_r14_network.client[38] 	downloads[38] 	12117
scalar tree_4_3_u09_r14_network.client[38] 	avg_time[38] 	0.004114546775
scalar tree_4_3_u09_r14_network.client[39] 	hdistance[39] 	2.6891281124168
scalar tree_4_3_u09_r14_network.client[39] 	downloads[39] 	12169
scalar tree_4_3_u09_r14_network.client[39] 	avg_time[39] 	0.00421261052
