version 2
run General-195-20160902-16:29:58-7280
attr a 0.9
attr cd wfc0.01
attr configname General
attr cr lru
attr datetime 20160902-16:29:58
attr experiment General
attr fsize 1
attr inifile hw5115/scenario_Y/omnetp.ini
attr iterationvars "$name=tree_4_3, $un=09, $rep=16, $cd=wfc0.01, $cr=lru, $fsize=1, $a=0.9, $sl=nrr, $ttl=1000, $variance=0.05"
attr iterationvars2 "$name=tree_4_3, $un=09, $rep=16, $cd=wfc0.01, $cr=lru, $fsize=1, $a=0.9, $sl=nrr, $ttl=1000, $variance=0.05, $repetition=0"
attr measurement "$name=tree_4_3, $un=09, $rep=16, $cd=wfc0.01, $cr=lru, $fsize=1, $a=0.9, $sl=nrr, $ttl=1000, $variance=0.05"
attr name tree_4_3
attr network networks.${name}_u${un}_r${rep}_network
attr processid 7280
attr rep 16
attr repetition 0
attr replication #0
attr resultdir results
attr runnumber 195
attr seedset 16
attr sl nrr
attr ttl 1000
attr un 09
attr variance 0.05

scalar . 	a 	0.9
scalar . 	fsize 	1
scalar . 	rep 	16
scalar . 	ttl 	1000
scalar . 	un 	09
scalar . 	variance 	0.05
scalar tree_4_3_u09_r16_network.content_distribution 	repo-0 	0
scalar tree_4_3_u09_r16_network.content_distribution 	client-0 	13
scalar tree_4_3_u09_r16_network.content_distribution 	client-1 	14
scalar tree_4_3_u09_r16_network.content_distribution 	client-2 	15
scalar tree_4_3_u09_r16_network.content_distribution 	client-3 	16
scalar tree_4_3_u09_r16_network.content_distribution 	client-4 	17
scalar tree_4_3_u09_r16_network.content_distribution 	client-5 	18
scalar tree_4_3_u09_r16_network.content_distribution 	client-6 	19
scalar tree_4_3_u09_r16_network.content_distribution 	client-7 	20
scalar tree_4_3_u09_r16_network.content_distribution 	client-8 	21
scalar tree_4_3_u09_r16_network.content_distribution 	client-9 	22
scalar tree_4_3_u09_r16_network.content_distribution 	client-10 	23
scalar tree_4_3_u09_r16_network.content_distribution 	client-11 	24
scalar tree_4_3_u09_r16_network.content_distribution 	client-12 	25
scalar tree_4_3_u09_r16_network.content_distribution 	client-13 	26
scalar tree_4_3_u09_r16_network.content_distribution 	client-14 	27
scalar tree_4_3_u09_r16_network.content_distribution 	client-15 	28
scalar tree_4_3_u09_r16_network.content_distribution 	client-16 	29
scalar tree_4_3_u09_r16_network.content_distribution 	client-17 	30
scalar tree_4_3_u09_r16_network.content_distribution 	client-18 	31
scalar tree_4_3_u09_r16_network.content_distribution 	client-19 	32
scalar tree_4_3_u09_r16_network.content_distribution 	client-20 	33
scalar tree_4_3_u09_r16_network.content_distribution 	client-21 	34
scalar tree_4_3_u09_r16_network.content_distribution 	client-22 	35
scalar tree_4_3_u09_r16_network.content_distribution 	client-23 	36
scalar tree_4_3_u09_r16_network.content_distribution 	client-24 	37
scalar tree_4_3_u09_r16_network.content_distribution 	client-25 	38
scalar tree_4_3_u09_r16_network.content_distribution 	client-26 	39
scalar tree_4_3_u09_r16_network.content_distribution 	repo-0_card 	100000
scalar tree_4_3_u09_r16_network.content_distribution 	repo-0_price 	0
scalar tree_4_3_u09_r16_network.statistics 	stabilization_time 	1100.4
scalar tree_4_3_u09_r16_network.statistics 	p_hit 	0.23955914562005
scalar tree_4_3_u09_r16_network.statistics 	interests 	25053.15
scalar tree_4_3_u09_r16_network.statistics 	data 	16936.2
scalar tree_4_3_u09_r16_network.statistics 	hdistance 	2.6487386368124
scalar tree_4_3_u09_r16_network.statistics 	avg_time 	0.0041731375
scalar tree_4_3_u09_r16_network.statistics 	downloads 	324679
scalar tree_4_3_u09_r16_network.statistics 	total_cost 	0
scalar tree_4_3_u09_r16_network.statistics 	total_replicas 	100000
scalar tree_4_3_u09_r16_network.statistics 	inner_hit 	0.43787248328349
scalar tree_4_3_u09_r16_network.node[0].core_layer 	interests[0] 	184323
scalar tree_4_3_u09_r16_network.node[0].core_layer 	repo_load[0] 	182511
scalar tree_4_3_u09_r16_network.node[0].core_layer 	data[0] 	0
scalar tree_4_3_u09_r16_network.node[0].core_layer 	repo_int[0] 	182511
scalar tree_4_3_u09_r16_network.node[0].content_store 	p_hit[0] 	0.0098305691639133
scalar tree_4_3_u09_r16_network.node[0].content_store 	hits[0] 	1812
scalar tree_4_3_u09_r16_network.node[0].content_store 	misses[0] 	182511
scalar tree_4_3_u09_r16_network.node[0].content_store 	decision_yes[0] 	2683
scalar tree_4_3_u09_r16_network.node[0].content_store 	decision_no[0] 	179828
scalar tree_4_3_u09_r16_network.node[0].content_store 	decision_ratio[0] 	0.014700483806456
scalar tree_4_3_u09_r16_network.node[1].core_layer 	interests[1] 	140004
scalar tree_4_3_u09_r16_network.node[1].core_layer 	data[1] 	138200
scalar tree_4_3_u09_r16_network.node[1].content_store 	p_hit[1] 	0.012878203479901
scalar tree_4_3_u09_r16_network.node[1].content_store 	hits[1] 	1803
scalar tree_4_3_u09_r16_network.node[1].content_store 	misses[1] 	138201
scalar tree_4_3_u09_r16_network.node[1].content_store 	decision_yes[1] 	1508
scalar tree_4_3_u09_r16_network.node[1].content_store 	decision_no[1] 	136692
scalar tree_4_3_u09_r16_network.node[1].content_store 	decision_ratio[1] 	0.010911722141823
scalar tree_4_3_u09_r16_network.node[2].core_layer 	interests[2] 	32896
scalar tree_4_3_u09_r16_network.node[2].core_layer 	data[2] 	30506
scalar tree_4_3_u09_r16_network.node[2].content_store 	p_hit[2] 	0.072622811284047
scalar tree_4_3_u09_r16_network.node[2].content_store 	hits[2] 	2389
scalar tree_4_3_u09_r16_network.node[2].content_store 	misses[2] 	30507
scalar tree_4_3_u09_r16_network.node[2].content_store 	decision_yes[2] 	406
scalar tree_4_3_u09_r16_network.node[2].content_store 	decision_no[2] 	30100
scalar tree_4_3_u09_r16_network.node[2].content_store 	decision_ratio[2] 	0.013308857273979
scalar tree_4_3_u09_r16_network.node[3].core_layer 	interests[3] 	37359
scalar tree_4_3_u09_r16_network.node[3].core_layer 	data[3] 	33922
scalar tree_4_3_u09_r16_network.node[3].content_store 	p_hit[3] 	0.091999250515271
scalar tree_4_3_u09_r16_network.node[3].content_store 	hits[3] 	3437
scalar tree_4_3_u09_r16_network.node[3].content_store 	misses[3] 	33922
scalar tree_4_3_u09_r16_network.node[3].content_store 	decision_yes[3] 	574
scalar tree_4_3_u09_r16_network.node[3].content_store 	decision_no[3] 	33348
scalar tree_4_3_u09_r16_network.node[3].content_store 	decision_ratio[3] 	0.016921172100702
scalar tree_4_3_u09_r16_network.node[4].core_layer 	interests[4] 	42677
scalar tree_4_3_u09_r16_network.node[4].core_layer 	data[4] 	40300
scalar tree_4_3_u09_r16_network.node[4].content_store 	p_hit[4] 	0.055674016449141
scalar tree_4_3_u09_r16_network.node[4].content_store 	hits[4] 	2376
scalar tree_4_3_u09_r16_network.node[4].content_store 	misses[4] 	40301
scalar tree_4_3_u09_r16_network.node[4].content_store 	decision_yes[4] 	579
scalar tree_4_3_u09_r16_network.node[4].content_store 	decision_no[4] 	39721
scalar tree_4_3_u09_r16_network.node[4].content_store 	decision_ratio[4] 	0.014367245657568
scalar tree_4_3_u09_r16_network.node[5].core_layer 	interests[5] 	29628
scalar tree_4_3_u09_r16_network.node[5].core_layer 	data[5] 	26105
scalar tree_4_3_u09_r16_network.node[5].content_store 	p_hit[5] 	0.11890778992845
scalar tree_4_3_u09_r16_network.node[5].content_store 	hits[5] 	3523
scalar tree_4_3_u09_r16_network.node[5].content_store 	misses[5] 	26105
scalar tree_4_3_u09_r16_network.node[5].content_store 	decision_yes[5] 	444
scalar tree_4_3_u09_r16_network.node[5].content_store 	decision_no[5] 	25661
scalar tree_4_3_u09_r16_network.node[5].content_store 	decision_ratio[5] 	0.017008235970121
scalar tree_4_3_u09_r16_network.node[6].core_layer 	interests[6] 	15523
scalar tree_4_3_u09_r16_network.node[6].core_layer 	data[6] 	11280
scalar tree_4_3_u09_r16_network.node[6].content_store 	p_hit[6] 	0.27340076016234
scalar tree_4_3_u09_r16_network.node[6].content_store 	hits[6] 	4244
scalar tree_4_3_u09_r16_network.node[6].content_store 	misses[6] 	11279
scalar tree_4_3_u09_r16_network.node[6].content_store 	decision_yes[6] 	417
scalar tree_4_3_u09_r16_network.node[6].content_store 	decision_no[6] 	10863
scalar tree_4_3_u09_r16_network.node[6].content_store 	decision_ratio[6] 	0.036968085106383
scalar tree_4_3_u09_r16_network.node[7].core_layer 	interests[7] 	45053
scalar tree_4_3_u09_r16_network.node[7].core_layer 	data[7] 	42030
scalar tree_4_3_u09_r16_network.node[7].content_store 	p_hit[7] 	0.067076554280514
scalar tree_4_3_u09_r16_network.node[7].content_store 	hits[7] 	3022
scalar tree_4_3_u09_r16_network.node[7].content_store 	misses[7] 	42031
scalar tree_4_3_u09_r16_network.node[7].content_store 	decision_yes[7] 	661
scalar tree_4_3_u09_r16_network.node[7].content_store 	decision_no[7] 	41369
scalar tree_4_3_u09_r16_network.node[7].content_store 	decision_ratio[7] 	0.015726861765406
scalar tree_4_3_u09_r16_network.node[8].core_layer 	interests[8] 	25753
scalar tree_4_3_u09_r16_network.node[8].core_layer 	data[8] 	23872
scalar tree_4_3_u09_r16_network.node[8].content_store 	p_hit[8] 	0.073001203743253
scalar tree_4_3_u09_r16_network.node[8].content_store 	hits[8] 	1880
scalar tree_4_3_u09_r16_network.node[8].content_store 	misses[8] 	23873
scalar tree_4_3_u09_r16_network.node[8].content_store 	decision_yes[8] 	357
scalar tree_4_3_u09_r16_network.node[8].content_store 	decision_no[8] 	23515
scalar tree_4_3_u09_r16_network.node[8].content_store 	decision_ratio[8] 	0.014954758713137
scalar tree_4_3_u09_r16_network.node[9].core_layer 	interests[9] 	15659
scalar tree_4_3_u09_r16_network.node[9].core_layer 	data[9] 	11980
scalar tree_4_3_u09_r16_network.node[9].content_store 	p_hit[9] 	0.2349447602018
scalar tree_4_3_u09_r16_network.node[9].content_store 	hits[9] 	3679
scalar tree_4_3_u09_r16_network.node[9].content_store 	misses[9] 	11980
scalar tree_4_3_u09_r16_network.node[9].content_store 	decision_yes[9] 	425
scalar tree_4_3_u09_r16_network.node[9].content_store 	decision_no[9] 	11555
scalar tree_4_3_u09_r16_network.node[9].content_store 	decision_ratio[9] 	0.035475792988314
scalar tree_4_3_u09_r16_network.node[10].core_layer 	interests[10] 	45884
scalar tree_4_3_u09_r16_network.node[10].core_layer 	data[10] 	42426
scalar tree_4_3_u09_r16_network.node[10].content_store 	p_hit[10] 	0.075363961293697
scalar tree_4_3_u09_r16_network.node[10].content_store 	hits[10] 	3458
scalar tree_4_3_u09_r16_network.node[10].content_store 	misses[10] 	42426
scalar tree_4_3_u09_r16_network.node[10].content_store 	decision_yes[10] 	620
scalar tree_4_3_u09_r16_network.node[10].content_store 	decision_no[10] 	41806
scalar tree_4_3_u09_r16_network.node[10].content_store 	decision_ratio[10] 	0.014613680290388
scalar tree_4_3_u09_r16_network.node[11].core_layer 	interests[11] 	27899
scalar tree_4_3_u09_r16_network.node[11].core_layer 	data[11] 	25444
scalar tree_4_3_u09_r16_network.node[11].content_store 	p_hit[11] 	0.087995985519194
scalar tree_4_3_u09_r16_network.node[11].content_store 	hits[11] 	2455
scalar tree_4_3_u09_r16_network.node[11].content_store 	misses[11] 	25444
scalar tree_4_3_u09_r16_network.node[11].content_store 	decision_yes[11] 	374
scalar tree_4_3_u09_r16_network.node[11].content_store 	decision_no[11] 	25070
scalar tree_4_3_u09_r16_network.node[11].content_store 	decision_ratio[11] 	0.014698946706493
scalar tree_4_3_u09_r16_network.node[12].core_layer 	interests[12] 	12293
scalar tree_4_3_u09_r16_network.node[12].core_layer 	data[12] 	9318
scalar tree_4_3_u09_r16_network.node[12].content_store 	p_hit[12] 	0.24200764662816
scalar tree_4_3_u09_r16_network.node[12].content_store 	hits[12] 	2975
scalar tree_4_3_u09_r16_network.node[12].content_store 	misses[12] 	9318
scalar tree_4_3_u09_r16_network.node[12].content_store 	decision_yes[12] 	268
scalar tree_4_3_u09_r16_network.node[12].content_store 	decision_no[12] 	9050
scalar tree_4_3_u09_r16_network.node[12].content_store 	decision_ratio[12] 	0.028761536810474
scalar tree_4_3_u09_r16_network.node[13].core_layer 	interests[13] 	12542
scalar tree_4_3_u09_r16_network.node[13].core_layer 	data[13] 	8974
scalar tree_4_3_u09_r16_network.node[13].content_store 	p_hit[13] 	0.28448413331207
scalar tree_4_3_u09_r16_network.node[13].content_store 	hits[13] 	3568
scalar tree_4_3_u09_r16_network.node[13].content_store 	misses[13] 	8974
scalar tree_4_3_u09_r16_network.node[13].content_store 	decision_yes[13] 	124
scalar tree_4_3_u09_r16_network.node[13].content_store 	decision_no[13] 	8850
scalar tree_4_3_u09_r16_network.node[13].content_store 	decision_ratio[13] 	0.013817695564965
scalar tree_4_3_u09_r16_network.node[14].core_layer 	interests[14] 	13166
scalar tree_4_3_u09_r16_network.node[14].core_layer 	data[14] 	8987
scalar tree_4_3_u09_r16_network.node[14].content_store 	p_hit[14] 	0.31740847637855
scalar tree_4_3_u09_r16_network.node[14].content_store 	hits[14] 	4179
scalar tree_4_3_u09_r16_network.node[14].content_store 	misses[14] 	8987
scalar tree_4_3_u09_r16_network.node[14].content_store 	decision_yes[14] 	115
scalar tree_4_3_u09_r16_network.node[14].content_store 	decision_no[14] 	8872
scalar tree_4_3_u09_r16_network.node[14].content_store 	decision_ratio[14] 	0.012796261266274
scalar tree_4_3_u09_r16_network.node[15].core_layer 	interests[15] 	13042
scalar tree_4_3_u09_r16_network.node[15].core_layer 	data[15] 	8977
scalar tree_4_3_u09_r16_network.node[15].content_store 	p_hit[15] 	0.31168532433676
scalar tree_4_3_u09_r16_network.node[15].content_store 	hits[15] 	4065
scalar tree_4_3_u09_r16_network.node[15].content_store 	misses[15] 	8977
scalar tree_4_3_u09_r16_network.node[15].content_store 	decision_yes[15] 	131
scalar tree_4_3_u09_r16_network.node[15].content_store 	decision_no[15] 	8846
scalar tree_4_3_u09_r16_network.node[15].content_store 	decision_ratio[15] 	0.014592848390331
scalar tree_4_3_u09_r16_network.node[16].core_layer 	interests[16] 	13300
scalar tree_4_3_u09_r16_network.node[16].core_layer 	data[16] 	9123
scalar tree_4_3_u09_r16_network.node[16].content_store 	p_hit[16] 	0.31398496240602
scalar tree_4_3_u09_r16_network.node[16].content_store 	hits[16] 	4176
scalar tree_4_3_u09_r16_network.node[16].content_store 	misses[16] 	9124
scalar tree_4_3_u09_r16_network.node[16].content_store 	decision_yes[16] 	137
scalar tree_4_3_u09_r16_network.node[16].content_store 	decision_no[16] 	8986
scalar tree_4_3_u09_r16_network.node[16].content_store 	decision_ratio[16] 	0.015016990025211
scalar tree_4_3_u09_r16_network.node[17].core_layer 	interests[17] 	12565
scalar tree_4_3_u09_r16_network.node[17].core_layer 	data[17] 	8895
scalar tree_4_3_u09_r16_network.node[17].content_store 	p_hit[17] 	0.29208117787505
scalar tree_4_3_u09_r16_network.node[17].content_store 	hits[17] 	3670
scalar tree_4_3_u09_r16_network.node[17].content_store 	misses[17] 	8895
scalar tree_4_3_u09_r16_network.node[17].content_store 	decision_yes[17] 	117
scalar tree_4_3_u09_r16_network.node[17].content_store 	decision_no[17] 	8778
scalar tree_4_3_u09_r16_network.node[17].content_store 	decision_ratio[17] 	0.013153456998314
scalar tree_4_3_u09_r16_network.node[18].core_layer 	interests[18] 	13166
scalar tree_4_3_u09_r16_network.node[18].core_layer 	data[18] 	9000
scalar tree_4_3_u09_r16_network.node[18].content_store 	p_hit[18] 	0.31642108461188
scalar tree_4_3_u09_r16_network.node[18].content_store 	hits[18] 	4166
scalar tree_4_3_u09_r16_network.node[18].content_store 	misses[18] 	9000
scalar tree_4_3_u09_r16_network.node[18].content_store 	decision_yes[18] 	141
scalar tree_4_3_u09_r16_network.node[18].content_store 	decision_no[18] 	8859
scalar tree_4_3_u09_r16_network.node[18].content_store 	decision_ratio[18] 	0.015666666666667
scalar tree_4_3_u09_r16_network.node[19].core_layer 	interests[19] 	12997
scalar tree_4_3_u09_r16_network.node[19].core_layer 	data[19] 	8981
scalar tree_4_3_u09_r16_network.node[19].content_store 	p_hit[19] 	0.30899438331923
scalar tree_4_3_u09_r16_network.node[19].content_store 	hits[19] 	4016
scalar tree_4_3_u09_r16_network.node[19].content_store 	misses[19] 	8981
scalar tree_4_3_u09_r16_network.node[19].content_store 	decision_yes[19] 	147
scalar tree_4_3_u09_r16_network.node[19].content_store 	decision_no[19] 	8834
scalar tree_4_3_u09_r16_network.node[19].content_store 	decision_ratio[19] 	0.016367887763055
scalar tree_4_3_u09_r16_network.node[20].core_layer 	interests[20] 	13188
scalar tree_4_3_u09_r16_network.node[20].core_layer 	data[20] 	9068
scalar tree_4_3_u09_r16_network.node[20].content_store 	p_hit[20] 	0.31240521686382
scalar tree_4_3_u09_r16_network.node[20].content_store 	hits[20] 	4120
scalar tree_4_3_u09_r16_network.node[20].content_store 	misses[20] 	9068
scalar tree_4_3_u09_r16_network.node[20].content_store 	decision_yes[20] 	130
scalar tree_4_3_u09_r16_network.node[20].content_store 	decision_no[20] 	8938
scalar tree_4_3_u09_r16_network.node[20].content_store 	decision_ratio[20] 	0.014336127040141
scalar tree_4_3_u09_r16_network.node[21].core_layer 	interests[21] 	12227
scalar tree_4_3_u09_r16_network.node[21].core_layer 	data[21] 	8691
scalar tree_4_3_u09_r16_network.node[21].content_store 	p_hit[21] 	0.28927782775824
scalar tree_4_3_u09_r16_network.node[21].content_store 	hits[21] 	3537
scalar tree_4_3_u09_r16_network.node[21].content_store 	misses[21] 	8690
scalar tree_4_3_u09_r16_network.node[21].content_store 	decision_yes[21] 	124
scalar tree_4_3_u09_r16_network.node[21].content_store 	decision_no[21] 	8567
scalar tree_4_3_u09_r16_network.node[21].content_store 	decision_ratio[21] 	0.014267633183753
scalar tree_4_3_u09_r16_network.node[22].core_layer 	interests[22] 	12516
scalar tree_4_3_u09_r16_network.node[22].core_layer 	data[22] 	8823
scalar tree_4_3_u09_r16_network.node[22].content_store 	p_hit[22] 	0.29506232023011
scalar tree_4_3_u09_r16_network.node[22].content_store 	hits[22] 	3693
scalar tree_4_3_u09_r16_network.node[22].content_store 	misses[22] 	8823
scalar tree_4_3_u09_r16_network.node[22].content_store 	decision_yes[22] 	118
scalar tree_4_3_u09_r16_network.node[22].content_store 	decision_no[22] 	8705
scalar tree_4_3_u09_r16_network.node[22].content_store 	decision_ratio[22] 	0.01337413578148
scalar tree_4_3_u09_r16_network.node[23].core_layer 	interests[23] 	12786
scalar tree_4_3_u09_r16_network.node[23].core_layer 	data[23] 	9126
scalar tree_4_3_u09_r16_network.node[23].content_store 	p_hit[23] 	0.28625058657907
scalar tree_4_3_u09_r16_network.node[23].content_store 	hits[23] 	3660
scalar tree_4_3_u09_r16_network.node[23].content_store 	misses[23] 	9126
scalar tree_4_3_u09_r16_network.node[23].content_store 	decision_yes[23] 	130
scalar tree_4_3_u09_r16_network.node[23].content_store 	decision_no[23] 	8996
scalar tree_4_3_u09_r16_network.node[23].content_store 	decision_ratio[23] 	0.014245014245014
scalar tree_4_3_u09_r16_network.node[24].core_layer 	interests[24] 	13365
scalar tree_4_3_u09_r16_network.node[24].core_layer 	data[24] 	9117
scalar tree_4_3_u09_r16_network.node[24].content_store 	p_hit[24] 	0.31784511784512
scalar tree_4_3_u09_r16_network.node[24].content_store 	hits[24] 	4248
scalar tree_4_3_u09_r16_network.node[24].content_store 	misses[24] 	9117
scalar tree_4_3_u09_r16_network.node[24].content_store 	decision_yes[24] 	131
scalar tree_4_3_u09_r16_network.node[24].content_store 	decision_no[24] 	8986
scalar tree_4_3_u09_r16_network.node[24].content_store 	decision_ratio[24] 	0.014368761654053
scalar tree_4_3_u09_r16_network.node[25].core_layer 	interests[25] 	13118
scalar tree_4_3_u09_r16_network.node[25].core_layer 	data[25] 	8997
scalar tree_4_3_u09_r16_network.node[25].content_store 	p_hit[25] 	0.31414849824668
scalar tree_4_3_u09_r16_network.node[25].content_store 	hits[25] 	4121
scalar tree_4_3_u09_r16_network.node[25].content_store 	misses[25] 	8997
scalar tree_4_3_u09_r16_network.node[25].content_store 	decision_yes[25] 	173
scalar tree_4_3_u09_r16_network.node[25].content_store 	decision_no[25] 	8824
scalar tree_4_3_u09_r16_network.node[25].content_store 	decision_ratio[25] 	0.019228631766144
scalar tree_4_3_u09_r16_network.node[26].core_layer 	interests[26] 	12427
scalar tree_4_3_u09_r16_network.node[26].core_layer 	data[26] 	8935
scalar tree_4_3_u09_r16_network.node[26].content_store 	p_hit[26] 	0.2809205761648
scalar tree_4_3_u09_r16_network.node[26].content_store 	hits[26] 	3491
scalar tree_4_3_u09_r16_network.node[26].content_store 	misses[26] 	8936
scalar tree_4_3_u09_r16_network.node[26].content_store 	decision_yes[26] 	115
scalar tree_4_3_u09_r16_network.node[26].content_store 	decision_no[26] 	8820
scalar tree_4_3_u09_r16_network.node[26].content_store 	decision_ratio[26] 	0.012870733072188
scalar tree_4_3_u09_r16_network.node[27].core_layer 	interests[27] 	12819
scalar tree_4_3_u09_r16_network.node[27].core_layer 	data[27] 	8913
scalar tree_4_3_u09_r16_network.node[27].content_store 	p_hit[27] 	0.30478196427178
scalar tree_4_3_u09_r16_network.node[27].content_store 	hits[27] 	3907
scalar tree_4_3_u09_r16_network.node[27].content_store 	misses[27] 	8912
scalar tree_4_3_u09_r16_network.node[27].content_store 	decision_yes[27] 	152
scalar tree_4_3_u09_r16_network.node[27].content_store 	decision_no[27] 	8761
scalar tree_4_3_u09_r16_network.node[27].content_store 	decision_ratio[27] 	0.017053741725569
scalar tree_4_3_u09_r16_network.node[28].core_layer 	interests[28] 	13156
scalar tree_4_3_u09_r16_network.node[28].core_layer 	data[28] 	8860
scalar tree_4_3_u09_r16_network.node[28].content_store 	p_hit[28] 	0.3265430221952
scalar tree_4_3_u09_r16_network.node[28].content_store 	hits[28] 	4296
scalar tree_4_3_u09_r16_network.node[28].content_store 	misses[28] 	8860
scalar tree_4_3_u09_r16_network.node[28].content_store 	decision_yes[28] 	144
scalar tree_4_3_u09_r16_network.node[28].content_store 	decision_no[28] 	8716
scalar tree_4_3_u09_r16_network.node[28].content_store 	decision_ratio[28] 	0.016252821670429
scalar tree_4_3_u09_r16_network.node[29].core_layer 	interests[29] 	12794
scalar tree_4_3_u09_r16_network.node[29].core_layer 	data[29] 	8820
scalar tree_4_3_u09_r16_network.node[29].content_store 	p_hit[29] 	0.31061435047679
scalar tree_4_3_u09_r16_network.node[29].content_store 	hits[29] 	3974
scalar tree_4_3_u09_r16_network.node[29].content_store 	misses[29] 	8820
scalar tree_4_3_u09_r16_network.node[29].content_store 	decision_yes[29] 	142
scalar tree_4_3_u09_r16_network.node[29].content_store 	decision_no[29] 	8678
scalar tree_4_3_u09_r16_network.node[29].content_store 	decision_ratio[29] 	0.01609977324263
scalar tree_4_3_u09_r16_network.node[30].core_layer 	interests[30] 	12714
scalar tree_4_3_u09_r16_network.node[30].core_layer 	data[30] 	9104
scalar tree_4_3_u09_r16_network.node[30].content_store 	p_hit[30] 	0.28401761837345
scalar tree_4_3_u09_r16_network.node[30].content_store 	hits[30] 	3611
scalar tree_4_3_u09_r16_network.node[30].content_store 	misses[30] 	9103
scalar tree_4_3_u09_r16_network.node[30].content_store 	decision_yes[30] 	121
scalar tree_4_3_u09_r16_network.node[30].content_store 	decision_no[30] 	8983
scalar tree_4_3_u09_r16_network.node[30].content_store 	decision_ratio[30] 	0.01329086115993
scalar tree_4_3_u09_r16_network.node[31].core_layer 	interests[31] 	12687
scalar tree_4_3_u09_r16_network.node[31].core_layer 	data[31] 	9124
scalar tree_4_3_u09_r16_network.node[31].content_store 	p_hit[31] 	0.28083865374005
scalar tree_4_3_u09_r16_network.node[31].content_store 	hits[31] 	3563
scalar tree_4_3_u09_r16_network.node[31].content_store 	misses[31] 	9124
scalar tree_4_3_u09_r16_network.node[31].content_store 	decision_yes[31] 	123
scalar tree_4_3_u09_r16_network.node[31].content_store 	decision_no[31] 	9001
scalar tree_4_3_u09_r16_network.node[31].content_store 	decision_ratio[31] 	0.013480929416922
scalar tree_4_3_u09_r16_network.node[32].core_layer 	interests[32] 	13231
scalar tree_4_3_u09_r16_network.node[32].core_layer 	data[32] 	9085
scalar tree_4_3_u09_r16_network.node[32].content_store 	p_hit[32] 	0.3133549996221
scalar tree_4_3_u09_r16_network.node[32].content_store 	hits[32] 	4146
scalar tree_4_3_u09_r16_network.node[32].content_store 	misses[32] 	9085
scalar tree_4_3_u09_r16_network.node[32].content_store 	decision_yes[32] 	134
scalar tree_4_3_u09_r16_network.node[32].content_store 	decision_no[32] 	8951
scalar tree_4_3_u09_r16_network.node[32].content_store 	decision_ratio[32] 	0.014749587231701
scalar tree_4_3_u09_r16_network.node[33].core_layer 	interests[33] 	13000
scalar tree_4_3_u09_r16_network.node[33].core_layer 	data[33] 	8979
scalar tree_4_3_u09_r16_network.node[33].content_store 	p_hit[33] 	0.30923076923077
scalar tree_4_3_u09_r16_network.node[33].content_store 	hits[33] 	4020
scalar tree_4_3_u09_r16_network.node[33].content_store 	misses[33] 	8980
scalar tree_4_3_u09_r16_network.node[33].content_store 	decision_yes[33] 	128
scalar tree_4_3_u09_r16_network.node[33].content_store 	decision_no[33] 	8851
scalar tree_4_3_u09_r16_network.node[33].content_store 	decision_ratio[33] 	0.014255485020604
scalar tree_4_3_u09_r16_network.node[34].core_layer 	interests[34] 	13106
scalar tree_4_3_u09_r16_network.node[34].core_layer 	data[34] 	9010
scalar tree_4_3_u09_r16_network.node[34].content_store 	p_hit[34] 	0.31252861284908
scalar tree_4_3_u09_r16_network.node[34].content_store 	hits[34] 	4096
scalar tree_4_3_u09_r16_network.node[34].content_store 	misses[34] 	9010
scalar tree_4_3_u09_r16_network.node[34].content_store 	decision_yes[34] 	150
scalar tree_4_3_u09_r16_network.node[34].content_store 	decision_no[34] 	8860
scalar tree_4_3_u09_r16_network.node[34].content_store 	decision_ratio[34] 	0.016648168701443
scalar tree_4_3_u09_r16_network.node[35].core_layer 	interests[35] 	12590
scalar tree_4_3_u09_r16_network.node[35].core_layer 	data[35] 	9031
scalar tree_4_3_u09_r16_network.node[35].content_store 	p_hit[35] 	0.28268467037331
scalar tree_4_3_u09_r16_network.node[35].content_store 	hits[35] 	3559
scalar tree_4_3_u09_r16_network.node[35].content_store 	misses[35] 	9031
scalar tree_4_3_u09_r16_network.node[35].content_store 	decision_yes[35] 	121
scalar tree_4_3_u09_r16_network.node[35].content_store 	decision_no[35] 	8910
scalar tree_4_3_u09_r16_network.node[35].content_store 	decision_ratio[35] 	0.013398294762485
scalar tree_4_3_u09_r16_network.node[36].core_layer 	interests[36] 	12657
scalar tree_4_3_u09_r16_network.node[36].core_layer 	data[36] 	8704
scalar tree_4_3_u09_r16_network.node[36].content_store 	p_hit[36] 	0.31231729477759
scalar tree_4_3_u09_r16_network.node[36].content_store 	hits[36] 	3953
scalar tree_4_3_u09_r16_network.node[36].content_store 	misses[36] 	8704
scalar tree_4_3_u09_r16_network.node[36].content_store 	decision_yes[36] 	123
scalar tree_4_3_u09_r16_network.node[36].content_store 	decision_no[36] 	8581
scalar tree_4_3_u09_r16_network.node[36].content_store 	decision_ratio[36] 	0.014131433823529
scalar tree_4_3_u09_r16_network.node[37].core_layer 	interests[37] 	13018
scalar tree_4_3_u09_r16_network.node[37].core_layer 	data[37] 	8990
scalar tree_4_3_u09_r16_network.node[37].content_store 	p_hit[37] 	0.30926409586726
scalar tree_4_3_u09_r16_network.node[37].content_store 	hits[37] 	4026
scalar tree_4_3_u09_r16_network.node[37].content_store 	misses[37] 	8992
scalar tree_4_3_u09_r16_network.node[37].content_store 	decision_yes[37] 	134
scalar tree_4_3_u09_r16_network.node[37].content_store 	decision_no[37] 	8856
scalar tree_4_3_u09_r16_network.node[37].content_store 	decision_ratio[37] 	0.014905450500556
scalar tree_4_3_u09_r16_network.node[38].core_layer 	interests[38] 	12810
scalar tree_4_3_u09_r16_network.node[38].core_layer 	data[38] 	9004
scalar tree_4_3_u09_r16_network.node[38].content_store 	p_hit[38] 	0.29718969555035
scalar tree_4_3_u09_r16_network.node[38].content_store 	hits[38] 	3807
scalar tree_4_3_u09_r16_network.node[38].content_store 	misses[38] 	9003
scalar tree_4_3_u09_r16_network.node[38].content_store 	decision_yes[38] 	157
scalar tree_4_3_u09_r16_network.node[38].content_store 	decision_no[38] 	8847
scalar tree_4_3_u09_r16_network.node[38].content_store 	decision_ratio[38] 	0.01743669480231
scalar tree_4_3_u09_r16_network.node[39].core_layer 	interests[39] 	12188
scalar tree_4_3_u09_r16_network.node[39].core_layer 	data[39] 	8747
scalar tree_4_3_u09_r16_network.node[39].content_store 	p_hit[39] 	0.28232687889728
scalar tree_4_3_u09_r16_network.node[39].content_store 	hits[39] 	3441
scalar tree_4_3_u09_r16_network.node[39].content_store 	misses[39] 	8747
scalar tree_4_3_u09_r16_network.node[39].content_store 	decision_yes[39] 	127
scalar tree_4_3_u09_r16_network.node[39].content_store 	decision_no[39] 	8620
scalar tree_4_3_u09_r16_network.node[39].content_store 	decision_ratio[39] 	0.014519263747571
scalar tree_4_3_u09_r16_network.client[13] 	hdistance[13] 	2.7380615051254
scalar tree_4_3_u09_r16_network.client[13] 	downloads[13] 	11999
scalar tree_4_3_u09_r16_network.client[13] 	avg_time[13] 	0.004317361735
scalar tree_4_3_u09_r16_network.client[14] 	hdistance[14] 	2.621198309439
scalar tree_4_3_u09_r16_network.client[14] 	downloads[14] 	12067
scalar tree_4_3_u09_r16_network.client[14] 	avg_time[14] 	0.004126457581
scalar tree_4_3_u09_r16_network.client[15] 	hdistance[15] 	2.6395523634542
scalar tree_4_3_u09_r16_network.client[15] 	downloads[15] 	11974
scalar tree_4_3_u09_r16_network.client[15] 	avg_time[15] 	0.004160010382
scalar tree_4_3_u09_r16_network.client[16] 	hdistance[16] 	2.6370516617308
scalar tree_4_3_u09_r16_network.client[16] 	downloads[16] 	12156
scalar tree_4_3_u09_r16_network.client[16] 	avg_time[16] 	0.004157881898
scalar tree_4_3_u09_r16_network.client[17] 	hdistance[17] 	2.6511338151009
scalar tree_4_3_u09_r16_network.client[17] 	downloads[17] 	12039
scalar tree_4_3_u09_r16_network.client[17] 	avg_time[17] 	0.004188384733
scalar tree_4_3_u09_r16_network.client[18] 	hdistance[18] 	2.5996857686265
scalar tree_4_3_u09_r16_network.client[18] 	downloads[18] 	12093
scalar tree_4_3_u09_r16_network.client[18] 	avg_time[18] 	0.004098897155
scalar tree_4_3_u09_r16_network.client[19] 	hdistance[19] 	2.6312264545835
scalar tree_4_3_u09_r16_network.client[19] 	downloads[19] 	11945
scalar tree_4_3_u09_r16_network.client[19] 	avg_time[19] 	0.004155543274
scalar tree_4_3_u09_r16_network.client[20] 	hdistance[20] 	2.6062206088607
scalar tree_4_3_u09_r16_network.client[20] 	downloads[20] 	12121
scalar tree_4_3_u09_r16_network.client[20] 	avg_time[20] 	0.004118139057
scalar tree_4_3_u09_r16_network.client[21] 	hdistance[21] 	2.6532436574153
scalar tree_4_3_u09_r16_network.client[21] 	downloads[21] 	11746
scalar tree_4_3_u09_r16_network.client[21] 	avg_time[21] 	0.004199043559
scalar tree_4_3_u09_r16_network.client[22] 	hdistance[22] 	2.6771820027064
scalar tree_4_3_u09_r16_network.client[22] 	downloads[22] 	11824
scalar tree_4_3_u09_r16_network.client[22] 	avg_time[22] 	0.004242385409
scalar tree_4_3_u09_r16_network.client[23] 	hdistance[23] 	2.7227287798408
scalar tree_4_3_u09_r16_network.client[23] 	downloads[23] 	12064
scalar tree_4_3_u09_r16_network.client[23] 	avg_time[23] 	0.00430636304
scalar tree_4_3_u09_r16_network.client[24] 	hdistance[24] 	2.6150111101967
scalar tree_4_3_u09_r16_network.client[24] 	downloads[24] 	12151
scalar tree_4_3_u09_r16_network.client[24] 	avg_time[24] 	0.004127064669
scalar tree_4_3_u09_r16_network.client[25] 	hdistance[25] 	2.6396561795877
scalar tree_4_3_u09_r16_network.client[25] 	downloads[25] 	11983
scalar tree_4_3_u09_r16_network.client[25] 	avg_time[25] 	0.004166232481
scalar tree_4_3_u09_r16_network.client[26] 	hdistance[26] 	2.7266838302467
scalar tree_4_3_u09_r16_network.client[26] 	downloads[26] 	12041
scalar tree_4_3_u09_r16_network.client[26] 	avg_time[26] 	0.004265423396
scalar tree_4_3_u09_r16_network.client[27] 	hdistance[27] 	2.6286877752846
scalar tree_4_3_u09_r16_network.client[27] 	downloads[27] 	12033
scalar tree_4_3_u09_r16_network.client[27] 	avg_time[27] 	0.004137447573
scalar tree_4_3_u09_r16_network.client[28] 	hdistance[28] 	2.5592967324598
scalar tree_4_3_u09_r16_network.client[28] 	downloads[28] 	12058
scalar tree_4_3_u09_r16_network.client[28] 	avg_time[28] 	0.004044274594
scalar tree_4_3_u09_r16_network.client[29] 	hdistance[29] 	2.6015892931828
scalar tree_4_3_u09_r16_network.client[29] 	downloads[29] 	11955
scalar tree_4_3_u09_r16_network.client[29] 	avg_time[29] 	0.004097908882
scalar tree_4_3_u09_r16_network.client[30] 	hdistance[30] 	2.6631182443498
scalar tree_4_3_u09_r16_network.client[30] 	downloads[30] 	12212
scalar tree_4_3_u09_r16_network.client[30] 	avg_time[30] 	0.004219944549
scalar tree_4_3_u09_r16_network.client[31] 	hdistance[31] 	2.7106594773953
scalar tree_4_3_u09_r16_network.client[31] 	downloads[31] 	12055
scalar tree_4_3_u09_r16_network.client[31] 	avg_time[31] 	0.004298462357
scalar tree_4_3_u09_r16_network.client[32] 	hdistance[32] 	2.6529533250723
scalar tree_4_3_u09_r16_network.client[32] 	downloads[32] 	12105
scalar tree_4_3_u09_r16_network.client[32] 	avg_time[32] 	0.004176948644
scalar tree_4_3_u09_r16_network.client[33] 	hdistance[33] 	2.6363255736058
scalar tree_4_3_u09_r16_network.client[33] 	downloads[33] 	11942
scalar tree_4_3_u09_r16_network.client[33] 	avg_time[33] 	0.00415086106
scalar tree_4_3_u09_r16_network.client[34] 	hdistance[34] 	2.6155237625391
scalar tree_4_3_u09_r16_network.client[34] 	downloads[34] 	12162
scalar tree_4_3_u09_r16_network.client[34] 	avg_time[34] 	0.004116973901
scalar tree_4_3_u09_r16_network.client[35] 	hdistance[35] 	2.7015392213351
scalar tree_4_3_u09_r16_network.client[35] 	downloads[35] 	12149
scalar tree_4_3_u09_r16_network.client[35] 	avg_time[35] 	0.004241645128
scalar tree_4_3_u09_r16_network.client[36] 	hdistance[36] 	2.6244198801789
scalar tree_4_3_u09_r16_network.client[36] 	downloads[36] 	11851
scalar tree_4_3_u09_r16_network.client[36] 	avg_time[36] 	0.004091297347
scalar tree_4_3_u09_r16_network.client[37] 	hdistance[37] 	2.6049055353
scalar tree_4_3_u09_r16_network.client[37] 	downloads[37] 	12068
scalar tree_4_3_u09_r16_network.client[37] 	avg_time[37] 	0.004102178397
scalar tree_4_3_u09_r16_network.client[38] 	hdistance[38] 	2.6580340890286
scalar tree_4_3_u09_r16_network.client[38] 	downloads[38] 	12086
scalar tree_4_3_u09_r16_network.client[38] 	avg_time[38] 	0.004141482976
scalar tree_4_3_u09_r16_network.client[39] 	hdistance[39] 	2.7002542372881
scalar tree_4_3_u09_r16_network.client[39] 	downloads[39] 	11800
scalar tree_4_3_u09_r16_network.client[39] 	avg_time[39] 	0.004226098749
