version 2
run General-38-20160820-14:19:41-2644
attr a 0.9
attr cd lce
attr configname General
attr cr lru
attr datetime 20160820-14:19:41
attr experiment General
attr fsize 1
attr inifile hw5115/scenario_A/SPR-LCE.ini
attr iterationvars "$name=tree_4_3, $un=01, $rep=19, $cd=lce, $cr=lru, $fsize=1, $a=0.9, $sl=spr, $ttl=1000, $variance=0.05"
attr iterationvars2 "$name=tree_4_3, $un=01, $rep=19, $cd=lce, $cr=lru, $fsize=1, $a=0.9, $sl=spr, $ttl=1000, $variance=0.05, $repetition=0"
attr measurement "$name=tree_4_3, $un=01, $rep=19, $cd=lce, $cr=lru, $fsize=1, $a=0.9, $sl=spr, $ttl=1000, $variance=0.05"
attr name tree_4_3
attr network networks.${name}_u${un}_r${rep}_network
attr processid 2644
attr rep 19
attr repetition 0
attr replication #0
attr resultdir results
attr runnumber 38
attr seedset 19
attr sl spr
attr ttl 1000
attr un 01
attr variance 0.05

scalar . 	a 	0.9
scalar . 	fsize 	1
scalar . 	rep 	19
scalar . 	ttl 	1000
scalar . 	un 	01
scalar . 	variance 	0.05
scalar tree_4_3_u01_r19_network.content_distribution 	repo-0 	0
scalar tree_4_3_u01_r19_network.content_distribution 	client-0 	13
scalar tree_4_3_u01_r19_network.content_distribution 	client-1 	14
scalar tree_4_3_u01_r19_network.content_distribution 	client-2 	15
scalar tree_4_3_u01_r19_network.content_distribution 	client-3 	16
scalar tree_4_3_u01_r19_network.content_distribution 	client-4 	17
scalar tree_4_3_u01_r19_network.content_distribution 	client-5 	18
scalar tree_4_3_u01_r19_network.content_distribution 	client-6 	19
scalar tree_4_3_u01_r19_network.content_distribution 	client-7 	20
scalar tree_4_3_u01_r19_network.content_distribution 	client-8 	21
scalar tree_4_3_u01_r19_network.content_distribution 	client-9 	22
scalar tree_4_3_u01_r19_network.content_distribution 	client-10 	23
scalar tree_4_3_u01_r19_network.content_distribution 	client-11 	24
scalar tree_4_3_u01_r19_network.content_distribution 	client-12 	25
scalar tree_4_3_u01_r19_network.content_distribution 	client-13 	26
scalar tree_4_3_u01_r19_network.content_distribution 	client-14 	27
scalar tree_4_3_u01_r19_network.content_distribution 	client-15 	28
scalar tree_4_3_u01_r19_network.content_distribution 	client-16 	29
scalar tree_4_3_u01_r19_network.content_distribution 	client-17 	30
scalar tree_4_3_u01_r19_network.content_distribution 	client-18 	31
scalar tree_4_3_u01_r19_network.content_distribution 	client-19 	32
scalar tree_4_3_u01_r19_network.content_distribution 	client-20 	33
scalar tree_4_3_u01_r19_network.content_distribution 	client-21 	34
scalar tree_4_3_u01_r19_network.content_distribution 	client-22 	35
scalar tree_4_3_u01_r19_network.content_distribution 	client-23 	36
scalar tree_4_3_u01_r19_network.content_distribution 	client-24 	37
scalar tree_4_3_u01_r19_network.content_distribution 	client-25 	38
scalar tree_4_3_u01_r19_network.content_distribution 	client-26 	39
scalar tree_4_3_u01_r19_network.content_distribution 	repo-0_card 	100000
scalar tree_4_3_u01_r19_network.content_distribution 	repo-0_price 	0
scalar tree_4_3_u01_r19_network.statistics 	stabilization_time 	632.2
scalar tree_4_3_u01_r19_network.statistics 	p_hit 	0.11381194430955
scalar tree_4_3_u01_r19_network.statistics 	interests 	28095
scalar tree_4_3_u01_r19_network.statistics 	data 	19988.25
scalar tree_4_3_u01_r19_network.statistics 	hdistance 	3.2518116028311
scalar tree_4_3_u01_r19_network.statistics 	avg_time 	0.004931461625
scalar tree_4_3_u01_r19_network.statistics 	downloads 	324252
scalar tree_4_3_u01_r19_network.statistics 	total_cost 	0
scalar tree_4_3_u01_r19_network.statistics 	total_replicas 	100000
scalar tree_4_3_u01_r19_network.statistics 	inner_hit 	0.21412049887125
scalar tree_4_3_u01_r19_network.node[0].core_layer 	interests[0] 	259905
scalar tree_4_3_u01_r19_network.node[0].core_layer 	repo_load[0] 	254823
scalar tree_4_3_u01_r19_network.node[0].core_layer 	data[0] 	0
scalar tree_4_3_u01_r19_network.node[0].core_layer 	repo_int[0] 	254823
scalar tree_4_3_u01_r19_network.node[0].content_store 	p_hit[0] 	0.01955329832054
scalar tree_4_3_u01_r19_network.node[0].content_store 	hits[0] 	5082
scalar tree_4_3_u01_r19_network.node[0].content_store 	misses[0] 	254823
scalar tree_4_3_u01_r19_network.node[0].content_store 	decision_yes[0] 	254823
scalar tree_4_3_u01_r19_network.node[0].content_store 	decision_no[0] 	0
scalar tree_4_3_u01_r19_network.node[0].content_store 	decision_ratio[0] 	1
scalar tree_4_3_u01_r19_network.node[1].core_layer 	interests[1] 	88975
scalar tree_4_3_u01_r19_network.node[1].core_layer 	data[1] 	86946
scalar tree_4_3_u01_r19_network.node[1].content_store 	p_hit[1] 	0.022792919359371
scalar tree_4_3_u01_r19_network.node[1].content_store 	hits[1] 	2028
scalar tree_4_3_u01_r19_network.node[1].content_store 	misses[1] 	86947
scalar tree_4_3_u01_r19_network.node[1].content_store 	decision_yes[1] 	86946
scalar tree_4_3_u01_r19_network.node[1].content_store 	decision_no[1] 	0
scalar tree_4_3_u01_r19_network.node[1].content_store 	decision_ratio[1] 	1
scalar tree_4_3_u01_r19_network.node[2].core_layer 	interests[2] 	88475
scalar tree_4_3_u01_r19_network.node[2].core_layer 	data[2] 	86461
scalar tree_4_3_u01_r19_network.node[2].content_store 	p_hit[2] 	0.022695676744843
scalar tree_4_3_u01_r19_network.node[2].content_store 	hits[2] 	2008
scalar tree_4_3_u01_r19_network.node[2].content_store 	misses[2] 	86467
scalar tree_4_3_u01_r19_network.node[2].content_store 	decision_yes[2] 	86461
scalar tree_4_3_u01_r19_network.node[2].content_store 	decision_no[2] 	0
scalar tree_4_3_u01_r19_network.node[2].content_store 	decision_ratio[2] 	1
scalar tree_4_3_u01_r19_network.node[3].core_layer 	interests[3] 	88496
scalar tree_4_3_u01_r19_network.node[3].core_layer 	data[3] 	86500
scalar tree_4_3_u01_r19_network.node[3].content_store 	p_hit[3] 	0.022520791900199
scalar tree_4_3_u01_r19_network.node[3].content_store 	hits[3] 	1993
scalar tree_4_3_u01_r19_network.node[3].content_store 	misses[3] 	86503
scalar tree_4_3_u01_r19_network.node[3].content_store 	decision_yes[3] 	86500
scalar tree_4_3_u01_r19_network.node[3].content_store 	decision_no[3] 	0
scalar tree_4_3_u01_r19_network.node[3].content_store 	decision_ratio[3] 	1
scalar tree_4_3_u01_r19_network.node[4].core_layer 	interests[4] 	30407
scalar tree_4_3_u01_r19_network.node[4].core_layer 	data[4] 	29549
scalar tree_4_3_u01_r19_network.node[4].content_store 	p_hit[4] 	0.02818429966784
scalar tree_4_3_u01_r19_network.node[4].content_store 	hits[4] 	857
scalar tree_4_3_u01_r19_network.node[4].content_store 	misses[4] 	29550
scalar tree_4_3_u01_r19_network.node[4].content_store 	decision_yes[4] 	29549
scalar tree_4_3_u01_r19_network.node[4].content_store 	decision_no[4] 	0
scalar tree_4_3_u01_r19_network.node[4].content_store 	decision_ratio[4] 	1
scalar tree_4_3_u01_r19_network.node[5].core_layer 	interests[5] 	30766
scalar tree_4_3_u01_r19_network.node[5].core_layer 	data[5] 	29895
scalar tree_4_3_u01_r19_network.node[5].content_store 	p_hit[5] 	0.028245465773906
scalar tree_4_3_u01_r19_network.node[5].content_store 	hits[5] 	869
scalar tree_4_3_u01_r19_network.node[5].content_store 	misses[5] 	29897
scalar tree_4_3_u01_r19_network.node[5].content_store 	decision_yes[5] 	29895
scalar tree_4_3_u01_r19_network.node[5].content_store 	decision_no[5] 	0
scalar tree_4_3_u01_r19_network.node[5].content_store 	decision_ratio[5] 	1
scalar tree_4_3_u01_r19_network.node[6].core_layer 	interests[6] 	30363
scalar tree_4_3_u01_r19_network.node[6].core_layer 	data[6] 	29532
scalar tree_4_3_u01_r19_network.node[6].content_store 	p_hit[6] 	0.027401771893423
scalar tree_4_3_u01_r19_network.node[6].content_store 	hits[6] 	832
scalar tree_4_3_u01_r19_network.node[6].content_store 	misses[6] 	29531
scalar tree_4_3_u01_r19_network.node[6].content_store 	decision_yes[6] 	29532
scalar tree_4_3_u01_r19_network.node[6].content_store 	decision_no[6] 	0
scalar tree_4_3_u01_r19_network.node[6].content_store 	decision_ratio[6] 	1
scalar tree_4_3_u01_r19_network.node[7].core_layer 	interests[7] 	30033
scalar tree_4_3_u01_r19_network.node[7].core_layer 	data[7] 	29209
scalar tree_4_3_u01_r19_network.node[7].content_store 	p_hit[7] 	0.027436486531482
scalar tree_4_3_u01_r19_network.node[7].content_store 	hits[7] 	824
scalar tree_4_3_u01_r19_network.node[7].content_store 	misses[7] 	29209
scalar tree_4_3_u01_r19_network.node[7].content_store 	decision_yes[7] 	29209
scalar tree_4_3_u01_r19_network.node[7].content_store 	decision_no[7] 	0
scalar tree_4_3_u01_r19_network.node[7].content_store 	decision_ratio[7] 	1
scalar tree_4_3_u01_r19_network.node[8].core_layer 	interests[8] 	30364
scalar tree_4_3_u01_r19_network.node[8].core_layer 	data[8] 	29478
scalar tree_4_3_u01_r19_network.node[8].content_store 	p_hit[8] 	0.029080490054011
scalar tree_4_3_u01_r19_network.node[8].content_store 	hits[8] 	883
scalar tree_4_3_u01_r19_network.node[8].content_store 	misses[8] 	29481
scalar tree_4_3_u01_r19_network.node[8].content_store 	decision_yes[8] 	29478
scalar tree_4_3_u01_r19_network.node[8].content_store 	decision_no[8] 	0
scalar tree_4_3_u01_r19_network.node[8].content_store 	decision_ratio[8] 	1
scalar tree_4_3_u01_r19_network.node[9].core_layer 	interests[9] 	30665
scalar tree_4_3_u01_r19_network.node[9].core_layer 	data[9] 	29788
scalar tree_4_3_u01_r19_network.node[9].content_store 	p_hit[9] 	0.028566769933149
scalar tree_4_3_u01_r19_network.node[9].content_store 	hits[9] 	876
scalar tree_4_3_u01_r19_network.node[9].content_store 	misses[9] 	29789
scalar tree_4_3_u01_r19_network.node[9].content_store 	decision_yes[9] 	29788
scalar tree_4_3_u01_r19_network.node[9].content_store 	decision_no[9] 	0
scalar tree_4_3_u01_r19_network.node[9].content_store 	decision_ratio[9] 	1
scalar tree_4_3_u01_r19_network.node[10].core_layer 	interests[10] 	30524
scalar tree_4_3_u01_r19_network.node[10].core_layer 	data[10] 	29653
scalar tree_4_3_u01_r19_network.node[10].content_store 	p_hit[10] 	0.028502162232997
scalar tree_4_3_u01_r19_network.node[10].content_store 	hits[10] 	870
scalar tree_4_3_u01_r19_network.node[10].content_store 	misses[10] 	29654
scalar tree_4_3_u01_r19_network.node[10].content_store 	decision_yes[10] 	29653
scalar tree_4_3_u01_r19_network.node[10].content_store 	decision_no[10] 	0
scalar tree_4_3_u01_r19_network.node[10].content_store 	decision_ratio[10] 	1
scalar tree_4_3_u01_r19_network.node[11].core_layer 	interests[11] 	30371
scalar tree_4_3_u01_r19_network.node[11].core_layer 	data[11] 	29511
scalar tree_4_3_u01_r19_network.node[11].content_store 	p_hit[11] 	0.028316486121629
scalar tree_4_3_u01_r19_network.node[11].content_store 	hits[11] 	860
scalar tree_4_3_u01_r19_network.node[11].content_store 	misses[11] 	29511
scalar tree_4_3_u01_r19_network.node[11].content_store 	decision_yes[11] 	29511
scalar tree_4_3_u01_r19_network.node[11].content_store 	decision_no[11] 	0
scalar tree_4_3_u01_r19_network.node[11].content_store 	decision_ratio[11] 	1
scalar tree_4_3_u01_r19_network.node[12].core_layer 	interests[12] 	30180
scalar tree_4_3_u01_r19_network.node[12].core_layer 	data[12] 	29333
scalar tree_4_3_u01_r19_network.node[12].content_store 	p_hit[12] 	0.027998674618953
scalar tree_4_3_u01_r19_network.node[12].content_store 	hits[12] 	845
scalar tree_4_3_u01_r19_network.node[12].content_store 	misses[12] 	29335
scalar tree_4_3_u01_r19_network.node[12].content_store 	decision_yes[12] 	29333
scalar tree_4_3_u01_r19_network.node[12].content_store 	decision_no[12] 	0
scalar tree_4_3_u01_r19_network.node[12].content_store 	decision_ratio[12] 	1
scalar tree_4_3_u01_r19_network.node[13].core_layer 	interests[13] 	11982
scalar tree_4_3_u01_r19_network.node[13].core_layer 	data[13] 	10066
scalar tree_4_3_u01_r19_network.node[13].content_store 	p_hit[13] 	0.15990652645635
scalar tree_4_3_u01_r19_network.node[13].content_store 	hits[13] 	1916
scalar tree_4_3_u01_r19_network.node[13].content_store 	misses[13] 	10066
scalar tree_4_3_u01_r19_network.node[13].content_store 	decision_yes[13] 	10066
scalar tree_4_3_u01_r19_network.node[13].content_store 	decision_no[13] 	0
scalar tree_4_3_u01_r19_network.node[13].content_store 	decision_ratio[13] 	1
scalar tree_4_3_u01_r19_network.node[14].core_layer 	interests[14] 	12053
scalar tree_4_3_u01_r19_network.node[14].core_layer 	data[14] 	10206
scalar tree_4_3_u01_r19_network.node[14].content_store 	p_hit[14] 	0.15307392350452
scalar tree_4_3_u01_r19_network.node[14].content_store 	hits[14] 	1845
scalar tree_4_3_u01_r19_network.node[14].content_store 	misses[14] 	10208
scalar tree_4_3_u01_r19_network.node[14].content_store 	decision_yes[14] 	10206
scalar tree_4_3_u01_r19_network.node[14].content_store 	decision_no[14] 	0
scalar tree_4_3_u01_r19_network.node[14].content_store 	decision_ratio[14] 	1
scalar tree_4_3_u01_r19_network.node[15].core_layer 	interests[15] 	12102
scalar tree_4_3_u01_r19_network.node[15].core_layer 	data[15] 	10135
scalar tree_4_3_u01_r19_network.node[15].content_store 	p_hit[15] 	0.1624524871922
scalar tree_4_3_u01_r19_network.node[15].content_store 	hits[15] 	1966
scalar tree_4_3_u01_r19_network.node[15].content_store 	misses[15] 	10136
scalar tree_4_3_u01_r19_network.node[15].content_store 	decision_yes[15] 	10135
scalar tree_4_3_u01_r19_network.node[15].content_store 	decision_no[15] 	0
scalar tree_4_3_u01_r19_network.node[15].content_store 	decision_ratio[15] 	1
scalar tree_4_3_u01_r19_network.node[16].core_layer 	interests[16] 	12005
scalar tree_4_3_u01_r19_network.node[16].core_layer 	data[16] 	10215
scalar tree_4_3_u01_r19_network.node[16].content_store 	p_hit[16] 	0.14910453977509
scalar tree_4_3_u01_r19_network.node[16].content_store 	hits[16] 	1790
scalar tree_4_3_u01_r19_network.node[16].content_store 	misses[16] 	10215
scalar tree_4_3_u01_r19_network.node[16].content_store 	decision_yes[16] 	10215
scalar tree_4_3_u01_r19_network.node[16].content_store 	decision_no[16] 	0
scalar tree_4_3_u01_r19_network.node[16].content_store 	decision_ratio[16] 	1
scalar tree_4_3_u01_r19_network.node[17].core_layer 	interests[17] 	12096
scalar tree_4_3_u01_r19_network.node[17].core_layer 	data[17] 	10194
scalar tree_4_3_u01_r19_network.node[17].content_store 	p_hit[17] 	0.15724206349206
scalar tree_4_3_u01_r19_network.node[17].content_store 	hits[17] 	1902
scalar tree_4_3_u01_r19_network.node[17].content_store 	misses[17] 	10194
scalar tree_4_3_u01_r19_network.node[17].content_store 	decision_yes[17] 	10194
scalar tree_4_3_u01_r19_network.node[17].content_store 	decision_no[17] 	0
scalar tree_4_3_u01_r19_network.node[17].content_store 	decision_ratio[17] 	1
scalar tree_4_3_u01_r19_network.node[18].core_layer 	interests[18] 	12118
scalar tree_4_3_u01_r19_network.node[18].core_layer 	data[18] 	10357
scalar tree_4_3_u01_r19_network.node[18].content_store 	p_hit[18] 	0.14507344446278
scalar tree_4_3_u01_r19_network.node[18].content_store 	hits[18] 	1758
scalar tree_4_3_u01_r19_network.node[18].content_store 	misses[18] 	10360
scalar tree_4_3_u01_r19_network.node[18].content_store 	decision_yes[18] 	10357
scalar tree_4_3_u01_r19_network.node[18].content_store 	decision_no[18] 	0
scalar tree_4_3_u01_r19_network.node[18].content_store 	decision_ratio[18] 	1
scalar tree_4_3_u01_r19_network.node[19].core_layer 	interests[19] 	11841
scalar tree_4_3_u01_r19_network.node[19].core_layer 	data[19] 	10014
scalar tree_4_3_u01_r19_network.node[19].content_store 	p_hit[19] 	0.15420994848408
scalar tree_4_3_u01_r19_network.node[19].content_store 	hits[19] 	1826
scalar tree_4_3_u01_r19_network.node[19].content_store 	misses[19] 	10015
scalar tree_4_3_u01_r19_network.node[19].content_store 	decision_yes[19] 	10014
scalar tree_4_3_u01_r19_network.node[19].content_store 	decision_no[19] 	0
scalar tree_4_3_u01_r19_network.node[19].content_store 	decision_ratio[19] 	1
scalar tree_4_3_u01_r19_network.node[20].core_layer 	interests[20] 	12011
scalar tree_4_3_u01_r19_network.node[20].core_layer 	data[20] 	10134
scalar tree_4_3_u01_r19_network.node[20].content_store 	p_hit[20] 	0.1562734160353
scalar tree_4_3_u01_r19_network.node[20].content_store 	hits[20] 	1877
scalar tree_4_3_u01_r19_network.node[20].content_store 	misses[20] 	10134
scalar tree_4_3_u01_r19_network.node[20].content_store 	decision_yes[20] 	10134
scalar tree_4_3_u01_r19_network.node[20].content_store 	decision_no[20] 	0
scalar tree_4_3_u01_r19_network.node[20].content_store 	decision_ratio[20] 	1
scalar tree_4_3_u01_r19_network.node[21].core_layer 	interests[21] 	12083
scalar tree_4_3_u01_r19_network.node[21].core_layer 	data[21] 	10216
scalar tree_4_3_u01_r19_network.node[21].content_store 	p_hit[21] 	0.15443184639576
scalar tree_4_3_u01_r19_network.node[21].content_store 	hits[21] 	1866
scalar tree_4_3_u01_r19_network.node[21].content_store 	misses[21] 	10217
scalar tree_4_3_u01_r19_network.node[21].content_store 	decision_yes[21] 	10216
scalar tree_4_3_u01_r19_network.node[21].content_store 	decision_no[21] 	0
scalar tree_4_3_u01_r19_network.node[21].content_store 	decision_ratio[21] 	1
scalar tree_4_3_u01_r19_network.node[22].core_layer 	interests[22] 	11879
scalar tree_4_3_u01_r19_network.node[22].core_layer 	data[22] 	9976
scalar tree_4_3_u01_r19_network.node[22].content_store 	p_hit[22] 	0.16019866992171
scalar tree_4_3_u01_r19_network.node[22].content_store 	hits[22] 	1903
scalar tree_4_3_u01_r19_network.node[22].content_store 	misses[22] 	9976
scalar tree_4_3_u01_r19_network.node[22].content_store 	decision_yes[22] 	9976
scalar tree_4_3_u01_r19_network.node[22].content_store 	decision_no[22] 	0
scalar tree_4_3_u01_r19_network.node[22].content_store 	decision_ratio[22] 	1
scalar tree_4_3_u01_r19_network.node[23].core_layer 	interests[23] 	11932
scalar tree_4_3_u01_r19_network.node[23].core_layer 	data[23] 	10025
scalar tree_4_3_u01_r19_network.node[23].content_store 	p_hit[23] 	0.15982232651693
scalar tree_4_3_u01_r19_network.node[23].content_store 	hits[23] 	1907
scalar tree_4_3_u01_r19_network.node[23].content_store 	misses[23] 	10025
scalar tree_4_3_u01_r19_network.node[23].content_store 	decision_yes[23] 	10025
scalar tree_4_3_u01_r19_network.node[23].content_store 	decision_no[23] 	0
scalar tree_4_3_u01_r19_network.node[23].content_store 	decision_ratio[23] 	1
scalar tree_4_3_u01_r19_network.node[24].core_layer 	interests[24] 	11908
scalar tree_4_3_u01_r19_network.node[24].core_layer 	data[24] 	10032
scalar tree_4_3_u01_r19_network.node[24].content_store 	p_hit[24] 	0.15754114880752
scalar tree_4_3_u01_r19_network.node[24].content_store 	hits[24] 	1876
scalar tree_4_3_u01_r19_network.node[24].content_store 	misses[24] 	10032
scalar tree_4_3_u01_r19_network.node[24].content_store 	decision_yes[24] 	10032
scalar tree_4_3_u01_r19_network.node[24].content_store 	decision_no[24] 	0
scalar tree_4_3_u01_r19_network.node[24].content_store 	decision_ratio[24] 	1
scalar tree_4_3_u01_r19_network.node[25].core_layer 	interests[25] 	12073
scalar tree_4_3_u01_r19_network.node[25].core_layer 	data[25] 	10120
scalar tree_4_3_u01_r19_network.node[25].content_store 	p_hit[25] 	0.16176592396256
scalar tree_4_3_u01_r19_network.node[25].content_store 	hits[25] 	1953
scalar tree_4_3_u01_r19_network.node[25].content_store 	misses[25] 	10120
scalar tree_4_3_u01_r19_network.node[25].content_store 	decision_yes[25] 	10120
scalar tree_4_3_u01_r19_network.node[25].content_store 	decision_no[25] 	0
scalar tree_4_3_u01_r19_network.node[25].content_store 	decision_ratio[25] 	1
scalar tree_4_3_u01_r19_network.node[26].core_layer 	interests[26] 	11888
scalar tree_4_3_u01_r19_network.node[26].core_layer 	data[26] 	10099
scalar tree_4_3_u01_r19_network.node[26].content_store 	p_hit[26] 	0.15031965006729
scalar tree_4_3_u01_r19_network.node[26].content_store 	hits[26] 	1787
scalar tree_4_3_u01_r19_network.node[26].content_store 	misses[26] 	10101
scalar tree_4_3_u01_r19_network.node[26].content_store 	decision_yes[26] 	10099
scalar tree_4_3_u01_r19_network.node[26].content_store 	decision_no[26] 	0
scalar tree_4_3_u01_r19_network.node[26].content_store 	decision_ratio[26] 	1
scalar tree_4_3_u01_r19_network.node[27].core_layer 	interests[27] 	12044
scalar tree_4_3_u01_r19_network.node[27].core_layer 	data[27] 	10145
scalar tree_4_3_u01_r19_network.node[27].content_store 	p_hit[27] 	0.15758884091664
scalar tree_4_3_u01_r19_network.node[27].content_store 	hits[27] 	1898
scalar tree_4_3_u01_r19_network.node[27].content_store 	misses[27] 	10146
scalar tree_4_3_u01_r19_network.node[27].content_store 	decision_yes[27] 	10145
scalar tree_4_3_u01_r19_network.node[27].content_store 	decision_no[27] 	0
scalar tree_4_3_u01_r19_network.node[27].content_store 	decision_ratio[27] 	1
scalar tree_4_3_u01_r19_network.node[28].core_layer 	interests[28] 	12172
scalar tree_4_3_u01_r19_network.node[28].core_layer 	data[28] 	10264
scalar tree_4_3_u01_r19_network.node[28].content_store 	p_hit[28] 	0.15667104830759
scalar tree_4_3_u01_r19_network.node[28].content_store 	hits[28] 	1907
scalar tree_4_3_u01_r19_network.node[28].content_store 	misses[28] 	10265
scalar tree_4_3_u01_r19_network.node[28].content_store 	decision_yes[28] 	10264
scalar tree_4_3_u01_r19_network.node[28].content_store 	decision_no[28] 	0
scalar tree_4_3_u01_r19_network.node[28].content_store 	decision_ratio[28] 	1
scalar tree_4_3_u01_r19_network.node[29].core_layer 	interests[29] 	12155
scalar tree_4_3_u01_r19_network.node[29].core_layer 	data[29] 	10219
scalar tree_4_3_u01_r19_network.node[29].content_store 	p_hit[29] 	0.15927601809955
scalar tree_4_3_u01_r19_network.node[29].content_store 	hits[29] 	1936
scalar tree_4_3_u01_r19_network.node[29].content_store 	misses[29] 	10219
scalar tree_4_3_u01_r19_network.node[29].content_store 	decision_yes[29] 	10219
scalar tree_4_3_u01_r19_network.node[29].content_store 	decision_no[29] 	0
scalar tree_4_3_u01_r19_network.node[29].content_store 	decision_ratio[29] 	1
scalar tree_4_3_u01_r19_network.node[30].core_layer 	interests[30] 	12065
scalar tree_4_3_u01_r19_network.node[30].core_layer 	data[30] 	10182
scalar tree_4_3_u01_r19_network.node[30].content_store 	p_hit[30] 	0.15598839618732
scalar tree_4_3_u01_r19_network.node[30].content_store 	hits[30] 	1882
scalar tree_4_3_u01_r19_network.node[30].content_store 	misses[30] 	10183
scalar tree_4_3_u01_r19_network.node[30].content_store 	decision_yes[30] 	10182
scalar tree_4_3_u01_r19_network.node[30].content_store 	decision_no[30] 	0
scalar tree_4_3_u01_r19_network.node[30].content_store 	decision_ratio[30] 	1
scalar tree_4_3_u01_r19_network.node[31].core_layer 	interests[31] 	12021
scalar tree_4_3_u01_r19_network.node[31].core_layer 	data[31] 	10131
scalar tree_4_3_u01_r19_network.node[31].content_store 	p_hit[31] 	0.15714166874636
scalar tree_4_3_u01_r19_network.node[31].content_store 	hits[31] 	1889
scalar tree_4_3_u01_r19_network.node[31].content_store 	misses[31] 	10132
scalar tree_4_3_u01_r19_network.node[31].content_store 	decision_yes[31] 	10131
scalar tree_4_3_u01_r19_network.node[31].content_store 	decision_no[31] 	0
scalar tree_4_3_u01_r19_network.node[31].content_store 	decision_ratio[31] 	1
scalar tree_4_3_u01_r19_network.node[32].core_layer 	interests[32] 	11995
scalar tree_4_3_u01_r19_network.node[32].core_layer 	data[32] 	10126
scalar tree_4_3_u01_r19_network.node[32].content_store 	p_hit[32] 	0.15573155481451
scalar tree_4_3_u01_r19_network.node[32].content_store 	hits[32] 	1868
scalar tree_4_3_u01_r19_network.node[32].content_store 	misses[32] 	10127
scalar tree_4_3_u01_r19_network.node[32].content_store 	decision_yes[32] 	10126
scalar tree_4_3_u01_r19_network.node[32].content_store 	decision_no[32] 	0
scalar tree_4_3_u01_r19_network.node[32].content_store 	decision_ratio[32] 	1
scalar tree_4_3_u01_r19_network.node[33].core_layer 	interests[33] 	12078
scalar tree_4_3_u01_r19_network.node[33].core_layer 	data[33] 	10267
scalar tree_4_3_u01_r19_network.node[33].content_store 	p_hit[33] 	0.1498592482199
scalar tree_4_3_u01_r19_network.node[33].content_store 	hits[33] 	1810
scalar tree_4_3_u01_r19_network.node[33].content_store 	misses[33] 	10268
scalar tree_4_3_u01_r19_network.node[33].content_store 	decision_yes[33] 	10267
scalar tree_4_3_u01_r19_network.node[33].content_store 	decision_no[33] 	0
scalar tree_4_3_u01_r19_network.node[33].content_store 	decision_ratio[33] 	1
scalar tree_4_3_u01_r19_network.node[34].core_layer 	interests[34] 	12017
scalar tree_4_3_u01_r19_network.node[34].core_layer 	data[34] 	10220
scalar tree_4_3_u01_r19_network.node[34].content_store 	p_hit[34] 	0.14945493883665
scalar tree_4_3_u01_r19_network.node[34].content_store 	hits[34] 	1796
scalar tree_4_3_u01_r19_network.node[34].content_store 	misses[34] 	10221
scalar tree_4_3_u01_r19_network.node[34].content_store 	decision_yes[34] 	10220
scalar tree_4_3_u01_r19_network.node[34].content_store 	decision_no[34] 	0
scalar tree_4_3_u01_r19_network.node[34].content_store 	decision_ratio[34] 	1
scalar tree_4_3_u01_r19_network.node[35].core_layer 	interests[35] 	12094
scalar tree_4_3_u01_r19_network.node[35].core_layer 	data[35] 	10145
scalar tree_4_3_u01_r19_network.node[35].content_store 	p_hit[35] 	0.16115429138416
scalar tree_4_3_u01_r19_network.node[35].content_store 	hits[35] 	1949
scalar tree_4_3_u01_r19_network.node[35].content_store 	misses[35] 	10145
scalar tree_4_3_u01_r19_network.node[35].content_store 	decision_yes[35] 	10145
scalar tree_4_3_u01_r19_network.node[35].content_store 	decision_no[35] 	0
scalar tree_4_3_u01_r19_network.node[35].content_store 	decision_ratio[35] 	1
scalar tree_4_3_u01_r19_network.node[36].core_layer 	interests[36] 	11876
scalar tree_4_3_u01_r19_network.node[36].core_layer 	data[36] 	10007
scalar tree_4_3_u01_r19_network.node[36].content_store 	p_hit[36] 	0.15720781407881
scalar tree_4_3_u01_r19_network.node[36].content_store 	hits[36] 	1867
scalar tree_4_3_u01_r19_network.node[36].content_store 	misses[36] 	10009
scalar tree_4_3_u01_r19_network.node[36].content_store 	decision_yes[36] 	10007
scalar tree_4_3_u01_r19_network.node[36].content_store 	decision_no[36] 	0
scalar tree_4_3_u01_r19_network.node[36].content_store 	decision_ratio[36] 	1
scalar tree_4_3_u01_r19_network.node[37].core_layer 	interests[37] 	11876
scalar tree_4_3_u01_r19_network.node[37].core_layer 	data[37] 	10015
scalar tree_4_3_u01_r19_network.node[37].content_store 	p_hit[37] 	0.15661839003031
scalar tree_4_3_u01_r19_network.node[37].content_store 	hits[37] 	1860
scalar tree_4_3_u01_r19_network.node[37].content_store 	misses[37] 	10016
scalar tree_4_3_u01_r19_network.node[37].content_store 	decision_yes[37] 	10015
scalar tree_4_3_u01_r19_network.node[37].content_store 	decision_no[37] 	0
scalar tree_4_3_u01_r19_network.node[37].content_store 	decision_ratio[37] 	1
scalar tree_4_3_u01_r19_network.node[38].core_layer 	interests[38] 	12069
scalar tree_4_3_u01_r19_network.node[38].core_layer 	data[38] 	10185
scalar tree_4_3_u01_r19_network.node[38].content_store 	p_hit[38] 	0.15601955422985
scalar tree_4_3_u01_r19_network.node[38].content_store 	hits[38] 	1883
scalar tree_4_3_u01_r19_network.node[38].content_store 	misses[38] 	10186
scalar tree_4_3_u01_r19_network.node[38].content_store 	decision_yes[38] 	10185
scalar tree_4_3_u01_r19_network.node[38].content_store 	decision_no[38] 	0
scalar tree_4_3_u01_r19_network.node[38].content_store 	decision_ratio[38] 	1
scalar tree_4_3_u01_r19_network.node[39].core_layer 	interests[39] 	11843
scalar tree_4_3_u01_r19_network.node[39].core_layer 	data[39] 	9980
scalar tree_4_3_u01_r19_network.node[39].content_store 	p_hit[39] 	0.15705480030398
scalar tree_4_3_u01_r19_network.node[39].content_store 	hits[39] 	1860
scalar tree_4_3_u01_r19_network.node[39].content_store 	misses[39] 	9983
scalar tree_4_3_u01_r19_network.node[39].content_store 	decision_yes[39] 	9980
scalar tree_4_3_u01_r19_network.node[39].content_store 	decision_no[39] 	0
scalar tree_4_3_u01_r19_network.node[39].content_store 	decision_ratio[39] 	1
scalar tree_4_3_u01_r19_network.client[13] 	hdistance[13] 	3.2340176932065
scalar tree_4_3_u01_r19_network.client[13] 	downloads[13] 	11982
scalar tree_4_3_u01_r19_network.client[13] 	avg_time[13] 	0.004908526468
scalar tree_4_3_u01_r19_network.client[14] 	hdistance[14] 	3.2602273670235
scalar tree_4_3_u01_r19_network.client[14] 	downloads[14] 	12051
scalar tree_4_3_u01_r19_network.client[14] 	avg_time[14] 	0.004941351567
scalar tree_4_3_u01_r19_network.client[15] 	hdistance[15] 	3.2284108751343
scalar tree_4_3_u01_r19_network.client[15] 	downloads[15] 	12101
scalar tree_4_3_u01_r19_network.client[15] 	avg_time[15] 	0.004894596259
scalar tree_4_3_u01_r19_network.client[16] 	hdistance[16] 	3.2849645980841
scalar tree_4_3_u01_r19_network.client[16] 	downloads[16] 	12005
scalar tree_4_3_u01_r19_network.client[16] 	avg_time[16] 	0.004978452641
scalar tree_4_3_u01_r19_network.client[17] 	hdistance[17] 	3.2398313492063
scalar tree_4_3_u01_r19_network.client[17] 	downloads[17] 	12096
scalar tree_4_3_u01_r19_network.client[17] 	avg_time[17] 	0.004914514137
scalar tree_4_3_u01_r19_network.client[18] 	hdistance[18] 	3.2943458522493
scalar tree_4_3_u01_r19_network.client[18] 	downloads[18] 	12115
scalar tree_4_3_u01_r19_network.client[18] 	avg_time[18] 	0.004996365971
scalar tree_4_3_u01_r19_network.client[19] 	hdistance[19] 	3.2625844594595
scalar tree_4_3_u01_r19_network.client[19] 	downloads[19] 	11840
scalar tree_4_3_u01_r19_network.client[19] 	avg_time[19] 	0.004947781337
scalar tree_4_3_u01_r19_network.client[20] 	hdistance[20] 	3.2524352676713
scalar tree_4_3_u01_r19_network.client[20] 	downloads[20] 	12011
scalar tree_4_3_u01_r19_network.client[20] 	avg_time[20] 	0.00493354631
scalar tree_4_3_u01_r19_network.client[21] 	hdistance[21] 	3.2608839596093
scalar tree_4_3_u01_r19_network.client[21] 	downloads[21] 	12082
scalar tree_4_3_u01_r19_network.client[21] 	avg_time[21] 	0.004944527525
scalar tree_4_3_u01_r19_network.client[22] 	hdistance[22] 	3.2368044448186
scalar tree_4_3_u01_r19_network.client[22] 	downloads[22] 	11879
scalar tree_4_3_u01_r19_network.client[22] 	avg_time[22] 	0.00490596551
scalar tree_4_3_u01_r19_network.client[23] 	hdistance[23] 	3.2402782433791
scalar tree_4_3_u01_r19_network.client[23] 	downloads[23] 	11932
scalar tree_4_3_u01_r19_network.client[23] 	avg_time[23] 	0.004914009743
scalar tree_4_3_u01_r19_network.client[24] 	hdistance[24] 	3.2468928451461
scalar tree_4_3_u01_r19_network.client[24] 	downloads[24] 	11908
scalar tree_4_3_u01_r19_network.client[24] 	avg_time[24] 	0.004923314312
scalar tree_4_3_u01_r19_network.client[25] 	hdistance[25] 	3.2278638283774
scalar tree_4_3_u01_r19_network.client[25] 	downloads[25] 	12073
scalar tree_4_3_u01_r19_network.client[25] 	avg_time[25] 	0.004895110893
scalar tree_4_3_u01_r19_network.client[26] 	hdistance[26] 	3.2667844522968
scalar tree_4_3_u01_r19_network.client[26] 	downloads[26] 	11886
scalar tree_4_3_u01_r19_network.client[26] 	avg_time[26] 	0.004957105656
scalar tree_4_3_u01_r19_network.client[27] 	hdistance[27] 	3.2415511085278
scalar tree_4_3_u01_r19_network.client[27] 	downloads[27] 	12043
scalar tree_4_3_u01_r19_network.client[27] 	avg_time[27] 	0.004919028596
scalar tree_4_3_u01_r19_network.client[28] 	hdistance[28] 	3.2526497411881
scalar tree_4_3_u01_r19_network.client[28] 	downloads[28] 	12171
scalar tree_4_3_u01_r19_network.client[28] 	avg_time[28] 	0.004930843583
scalar tree_4_3_u01_r19_network.client[29] 	hdistance[29] 	3.241793500617
scalar tree_4_3_u01_r19_network.client[29] 	downloads[29] 	12155
scalar tree_4_3_u01_r19_network.client[29] 	avg_time[29] 	0.004912802895
scalar tree_4_3_u01_r19_network.client[30] 	hdistance[30] 	3.251326259947
scalar tree_4_3_u01_r19_network.client[30] 	downloads[30] 	12064
scalar tree_4_3_u01_r19_network.client[30] 	avg_time[30] 	0.004929391305
scalar tree_4_3_u01_r19_network.client[31] 	hdistance[31] 	3.2441763727122
scalar tree_4_3_u01_r19_network.client[31] 	downloads[31] 	12020
scalar tree_4_3_u01_r19_network.client[31] 	avg_time[31] 	0.00492045072
scalar tree_4_3_u01_r19_network.client[32] 	hdistance[32] 	3.2597131899283
scalar tree_4_3_u01_r19_network.client[32] 	downloads[32] 	11994
scalar tree_4_3_u01_r19_network.client[32] 	avg_time[32] 	0.004941275258
scalar tree_4_3_u01_r19_network.client[33] 	hdistance[33] 	3.2696033783224
scalar tree_4_3_u01_r19_network.client[33] 	downloads[33] 	12077
scalar tree_4_3_u01_r19_network.client[33] 	avg_time[33] 	0.004961512538
scalar tree_4_3_u01_r19_network.client[34] 	hdistance[34] 	3.2803761651132
scalar tree_4_3_u01_r19_network.client[34] 	downloads[34] 	12016
scalar tree_4_3_u01_r19_network.client[34] 	avg_time[34] 	0.004970690022
scalar tree_4_3_u01_r19_network.client[35] 	hdistance[35] 	3.2299487349099
scalar tree_4_3_u01_r19_network.client[35] 	downloads[35] 	12094
scalar tree_4_3_u01_r19_network.client[35] 	avg_time[35] 	0.004900600586
scalar tree_4_3_u01_r19_network.client[36] 	hdistance[36] 	3.2459154455112
scalar tree_4_3_u01_r19_network.client[36] 	downloads[36] 	11874
scalar tree_4_3_u01_r19_network.client[36] 	avg_time[36] 	0.004925906361
scalar tree_4_3_u01_r19_network.client[37] 	hdistance[37] 	3.253052631579
scalar tree_4_3_u01_r19_network.client[37] 	downloads[37] 	11875
scalar tree_4_3_u01_r19_network.client[37] 	avg_time[37] 	0.004933361572
scalar tree_4_3_u01_r19_network.client[38] 	hdistance[38] 	3.250082863772
scalar tree_4_3_u01_r19_network.client[38] 	downloads[38] 	12068
scalar tree_4_3_u01_r19_network.client[38] 	avg_time[38] 	0.004930959671
scalar tree_4_3_u01_r19_network.client[39] 	hdistance[39] 	3.2423986486486
scalar tree_4_3_u01_r19_network.client[39] 	downloads[39] 	11840
scalar tree_4_3_u01_r19_network.client[39] 	avg_time[39] 	0.004917472443
