version 2
run General-31-20160820-14:12:06-2644
attr a 0.9
attr cd lce
attr configname General
attr cr lru
attr datetime 20160820-14:12:06
attr experiment General
attr fsize 1
attr inifile hw5115/scenario_A/SPR-LCE.ini
attr iterationvars "$name=tree_4_3, $un=01, $rep=12, $cd=lce, $cr=lru, $fsize=1, $a=0.9, $sl=spr, $ttl=1000, $variance=0.05"
attr iterationvars2 "$name=tree_4_3, $un=01, $rep=12, $cd=lce, $cr=lru, $fsize=1, $a=0.9, $sl=spr, $ttl=1000, $variance=0.05, $repetition=0"
attr measurement "$name=tree_4_3, $un=01, $rep=12, $cd=lce, $cr=lru, $fsize=1, $a=0.9, $sl=spr, $ttl=1000, $variance=0.05"
attr name tree_4_3
attr network networks.${name}_u${un}_r${rep}_network
attr processid 2644
attr rep 12
attr repetition 0
attr replication #0
attr resultdir results
attr runnumber 31
attr seedset 12
attr sl spr
attr ttl 1000
attr un 01
attr variance 0.05

scalar . 	a 	0.9
scalar . 	fsize 	1
scalar . 	rep 	12
scalar . 	ttl 	1000
scalar . 	un 	01
scalar . 	variance 	0.05
scalar tree_4_3_u01_r12_network.content_distribution 	repo-0 	0
scalar tree_4_3_u01_r12_network.content_distribution 	client-0 	13
scalar tree_4_3_u01_r12_network.content_distribution 	client-1 	14
scalar tree_4_3_u01_r12_network.content_distribution 	client-2 	15
scalar tree_4_3_u01_r12_network.content_distribution 	client-3 	16
scalar tree_4_3_u01_r12_network.content_distribution 	client-4 	17
scalar tree_4_3_u01_r12_network.content_distribution 	client-5 	18
scalar tree_4_3_u01_r12_network.content_distribution 	client-6 	19
scalar tree_4_3_u01_r12_network.content_distribution 	client-7 	20
scalar tree_4_3_u01_r12_network.content_distribution 	client-8 	21
scalar tree_4_3_u01_r12_network.content_distribution 	client-9 	22
scalar tree_4_3_u01_r12_network.content_distribution 	client-10 	23
scalar tree_4_3_u01_r12_network.content_distribution 	client-11 	24
scalar tree_4_3_u01_r12_network.content_distribution 	client-12 	25
scalar tree_4_3_u01_r12_network.content_distribution 	client-13 	26
scalar tree_4_3_u01_r12_network.content_distribution 	client-14 	27
scalar tree_4_3_u01_r12_network.content_distribution 	client-15 	28
scalar tree_4_3_u01_r12_network.content_distribution 	client-16 	29
scalar tree_4_3_u01_r12_network.content_distribution 	client-17 	30
scalar tree_4_3_u01_r12_network.content_distribution 	client-18 	31
scalar tree_4_3_u01_r12_network.content_distribution 	client-19 	32
scalar tree_4_3_u01_r12_network.content_distribution 	client-20 	33
scalar tree_4_3_u01_r12_network.content_distribution 	client-21 	34
scalar tree_4_3_u01_r12_network.content_distribution 	client-22 	35
scalar tree_4_3_u01_r12_network.content_distribution 	client-23 	36
scalar tree_4_3_u01_r12_network.content_distribution 	client-24 	37
scalar tree_4_3_u01_r12_network.content_distribution 	client-25 	38
scalar tree_4_3_u01_r12_network.content_distribution 	client-26 	39
scalar tree_4_3_u01_r12_network.content_distribution 	repo-0_card 	100000
scalar tree_4_3_u01_r12_network.content_distribution 	repo-0_price 	0
scalar tree_4_3_u01_r12_network.statistics 	stabilization_time 	561.4
scalar tree_4_3_u01_r12_network.statistics 	p_hit 	0.11343805977657
scalar tree_4_3_u01_r12_network.statistics 	interests 	28076.925
scalar tree_4_3_u01_r12_network.statistics 	data 	19977.025
scalar tree_4_3_u01_r12_network.statistics 	hdistance 	3.2534929111433
scalar tree_4_3_u01_r12_network.statistics 	avg_time 	0.004932913854
scalar tree_4_3_u01_r12_network.statistics 	downloads 	323989
scalar tree_4_3_u01_r12_network.statistics 	total_cost 	0
scalar tree_4_3_u01_r12_network.statistics 	total_replicas 	100000
scalar tree_4_3_u01_r12_network.statistics 	inner_hit 	0.21320476929772
scalar tree_4_3_u01_r12_network.node[0].core_layer 	interests[0] 	259703
scalar tree_4_3_u01_r12_network.node[0].core_layer 	repo_load[0] 	254913
scalar tree_4_3_u01_r12_network.node[0].core_layer 	data[0] 	0
scalar tree_4_3_u01_r12_network.node[0].core_layer 	repo_int[0] 	254913
scalar tree_4_3_u01_r12_network.node[0].content_store 	p_hit[0] 	0.018444145812717
scalar tree_4_3_u01_r12_network.node[0].content_store 	hits[0] 	4790
scalar tree_4_3_u01_r12_network.node[0].content_store 	misses[0] 	254913
scalar tree_4_3_u01_r12_network.node[0].content_store 	decision_yes[0] 	254913
scalar tree_4_3_u01_r12_network.node[0].content_store 	decision_no[0] 	0
scalar tree_4_3_u01_r12_network.node[0].content_store 	decision_ratio[0] 	1
scalar tree_4_3_u01_r12_network.node[1].core_layer 	interests[1] 	88529
scalar tree_4_3_u01_r12_network.node[1].core_layer 	data[1] 	86508
scalar tree_4_3_u01_r12_network.node[1].content_store 	p_hit[1] 	0.022749607473257
scalar tree_4_3_u01_r12_network.node[1].content_store 	hits[1] 	2014
scalar tree_4_3_u01_r12_network.node[1].content_store 	misses[1] 	86515
scalar tree_4_3_u01_r12_network.node[1].content_store 	decision_yes[1] 	86508
scalar tree_4_3_u01_r12_network.node[1].content_store 	decision_no[1] 	0
scalar tree_4_3_u01_r12_network.node[1].content_store 	decision_ratio[1] 	1
scalar tree_4_3_u01_r12_network.node[2].core_layer 	interests[2] 	118069
scalar tree_4_3_u01_r12_network.node[2].core_layer 	data[2] 	115054
scalar tree_4_3_u01_r12_network.node[2].content_store 	p_hit[2] 	0.025434279954942
scalar tree_4_3_u01_r12_network.node[2].content_store 	hits[2] 	3003
scalar tree_4_3_u01_r12_network.node[2].content_store 	misses[2] 	115066
scalar tree_4_3_u01_r12_network.node[2].content_store 	decision_yes[2] 	115054
scalar tree_4_3_u01_r12_network.node[2].content_store 	decision_no[2] 	0
scalar tree_4_3_u01_r12_network.node[2].content_store 	decision_ratio[2] 	1
scalar tree_4_3_u01_r12_network.node[3].core_layer 	interests[3] 	59200
scalar tree_4_3_u01_r12_network.node[3].core_layer 	data[3] 	58141
scalar tree_4_3_u01_r12_network.node[3].content_store 	p_hit[3] 	0.017871621621622
scalar tree_4_3_u01_r12_network.node[3].content_store 	hits[3] 	1058
scalar tree_4_3_u01_r12_network.node[3].content_store 	misses[3] 	58142
scalar tree_4_3_u01_r12_network.node[3].content_store 	decision_yes[3] 	58141
scalar tree_4_3_u01_r12_network.node[3].content_store 	decision_no[3] 	0
scalar tree_4_3_u01_r12_network.node[3].content_store 	decision_ratio[3] 	1
scalar tree_4_3_u01_r12_network.node[4].core_layer 	interests[4] 	30454
scalar tree_4_3_u01_r12_network.node[4].core_layer 	data[4] 	29578
scalar tree_4_3_u01_r12_network.node[4].content_store 	p_hit[4] 	0.028731857884022
scalar tree_4_3_u01_r12_network.node[4].content_store 	hits[4] 	875
scalar tree_4_3_u01_r12_network.node[4].content_store 	misses[4] 	29579
scalar tree_4_3_u01_r12_network.node[4].content_store 	decision_yes[4] 	29578
scalar tree_4_3_u01_r12_network.node[4].content_store 	decision_no[4] 	0
scalar tree_4_3_u01_r12_network.node[4].content_store 	decision_ratio[4] 	1
scalar tree_4_3_u01_r12_network.node[5].core_layer 	interests[5] 	30319
scalar tree_4_3_u01_r12_network.node[5].core_layer 	data[5] 	29440
scalar tree_4_3_u01_r12_network.node[5].content_store 	p_hit[5] 	0.028991721362842
scalar tree_4_3_u01_r12_network.node[5].content_store 	hits[5] 	879
scalar tree_4_3_u01_r12_network.node[5].content_store 	misses[5] 	29440
scalar tree_4_3_u01_r12_network.node[5].content_store 	decision_yes[5] 	29440
scalar tree_4_3_u01_r12_network.node[5].content_store 	decision_no[5] 	0
scalar tree_4_3_u01_r12_network.node[5].content_store 	decision_ratio[5] 	1
scalar tree_4_3_u01_r12_network.node[6].core_layer 	interests[6] 	30359
scalar tree_4_3_u01_r12_network.node[6].core_layer 	data[6] 	29513
scalar tree_4_3_u01_r12_network.node[6].content_store 	p_hit[6] 	0.027701834711288
scalar tree_4_3_u01_r12_network.node[6].content_store 	hits[6] 	841
scalar tree_4_3_u01_r12_network.node[6].content_store 	misses[6] 	29518
scalar tree_4_3_u01_r12_network.node[6].content_store 	decision_yes[6] 	29513
scalar tree_4_3_u01_r12_network.node[6].content_store 	decision_no[6] 	0
scalar tree_4_3_u01_r12_network.node[6].content_store 	decision_ratio[6] 	1
scalar tree_4_3_u01_r12_network.node[7].core_layer 	interests[7] 	40778
scalar tree_4_3_u01_r12_network.node[7].core_layer 	data[7] 	39518
scalar tree_4_3_u01_r12_network.node[7].content_store 	p_hit[7] 	0.03080092206582
scalar tree_4_3_u01_r12_network.node[7].content_store 	hits[7] 	1256
scalar tree_4_3_u01_r12_network.node[7].content_store 	misses[7] 	39522
scalar tree_4_3_u01_r12_network.node[7].content_store 	decision_yes[7] 	39518
scalar tree_4_3_u01_r12_network.node[7].content_store 	decision_no[7] 	0
scalar tree_4_3_u01_r12_network.node[7].content_store 	decision_ratio[7] 	1
scalar tree_4_3_u01_r12_network.node[8].core_layer 	interests[8] 	20077
scalar tree_4_3_u01_r12_network.node[8].core_layer 	data[8] 	19633
scalar tree_4_3_u01_r12_network.node[8].content_store 	p_hit[8] 	0.022065049559197
scalar tree_4_3_u01_r12_network.node[8].content_store 	hits[8] 	443
scalar tree_4_3_u01_r12_network.node[8].content_store 	misses[8] 	19634
scalar tree_4_3_u01_r12_network.node[8].content_store 	decision_yes[8] 	19633
scalar tree_4_3_u01_r12_network.node[8].content_store 	decision_no[8] 	0
scalar tree_4_3_u01_r12_network.node[8].content_store 	decision_ratio[8] 	1
scalar tree_4_3_u01_r12_network.node[9].core_layer 	interests[9] 	30330
scalar tree_4_3_u01_r12_network.node[9].core_layer 	data[9] 	29482
scalar tree_4_3_u01_r12_network.node[9].content_store 	p_hit[9] 	0.0279261457303
scalar tree_4_3_u01_r12_network.node[9].content_store 	hits[9] 	847
scalar tree_4_3_u01_r12_network.node[9].content_store 	misses[9] 	29483
scalar tree_4_3_u01_r12_network.node[9].content_store 	decision_yes[9] 	29482
scalar tree_4_3_u01_r12_network.node[9].content_store 	decision_no[9] 	0
scalar tree_4_3_u01_r12_network.node[9].content_store 	decision_ratio[9] 	1
scalar tree_4_3_u01_r12_network.node[10].core_layer 	interests[10] 	30362
scalar tree_4_3_u01_r12_network.node[10].core_layer 	data[10] 	29456
scalar tree_4_3_u01_r12_network.node[10].content_store 	p_hit[10] 	0.029806995586588
scalar tree_4_3_u01_r12_network.node[10].content_store 	hits[10] 	905
scalar tree_4_3_u01_r12_network.node[10].content_store 	misses[10] 	29457
scalar tree_4_3_u01_r12_network.node[10].content_store 	decision_yes[10] 	29456
scalar tree_4_3_u01_r12_network.node[10].content_store 	decision_no[10] 	0
scalar tree_4_3_u01_r12_network.node[10].content_store 	decision_ratio[10] 	1
scalar tree_4_3_u01_r12_network.node[11].core_layer 	interests[11] 	30278
scalar tree_4_3_u01_r12_network.node[11].core_layer 	data[11] 	29436
scalar tree_4_3_u01_r12_network.node[11].content_store 	p_hit[11] 	0.027742915648326
scalar tree_4_3_u01_r12_network.node[11].content_store 	hits[11] 	840
scalar tree_4_3_u01_r12_network.node[11].content_store 	misses[11] 	29438
scalar tree_4_3_u01_r12_network.node[11].content_store 	decision_yes[11] 	29436
scalar tree_4_3_u01_r12_network.node[11].content_store 	decision_no[11] 	0
scalar tree_4_3_u01_r12_network.node[11].content_store 	decision_ratio[11] 	1
scalar tree_4_3_u01_r12_network.node[12].core_layer 	interests[12] 	30619
scalar tree_4_3_u01_r12_network.node[12].core_layer 	data[12] 	29744
scalar tree_4_3_u01_r12_network.node[12].content_store 	p_hit[12] 	0.028511708416343
scalar tree_4_3_u01_r12_network.node[12].content_store 	hits[12] 	873
scalar tree_4_3_u01_r12_network.node[12].content_store 	misses[12] 	29746
scalar tree_4_3_u01_r12_network.node[12].content_store 	decision_yes[12] 	29744
scalar tree_4_3_u01_r12_network.node[12].content_store 	decision_no[12] 	0
scalar tree_4_3_u01_r12_network.node[12].content_store 	decision_ratio[12] 	1
scalar tree_4_3_u01_r12_network.node[13].core_layer 	interests[13] 	11803
scalar tree_4_3_u01_r12_network.node[13].core_layer 	data[13] 	9976
scalar tree_4_3_u01_r12_network.node[13].content_store 	p_hit[13] 	0.15487587901381
scalar tree_4_3_u01_r12_network.node[13].content_store 	hits[13] 	1828
scalar tree_4_3_u01_r12_network.node[13].content_store 	misses[13] 	9975
scalar tree_4_3_u01_r12_network.node[13].content_store 	decision_yes[13] 	9976
scalar tree_4_3_u01_r12_network.node[13].content_store 	decision_no[13] 	0
scalar tree_4_3_u01_r12_network.node[13].content_store 	decision_ratio[13] 	1
scalar tree_4_3_u01_r12_network.node[14].core_layer 	interests[14] 	12197
scalar tree_4_3_u01_r12_network.node[14].core_layer 	data[14] 	10277
scalar tree_4_3_u01_r12_network.node[14].content_store 	p_hit[14] 	0.15741575797327
scalar tree_4_3_u01_r12_network.node[14].content_store 	hits[14] 	1920
scalar tree_4_3_u01_r12_network.node[14].content_store 	misses[14] 	10277
scalar tree_4_3_u01_r12_network.node[14].content_store 	decision_yes[14] 	10277
scalar tree_4_3_u01_r12_network.node[14].content_store 	decision_no[14] 	0
scalar tree_4_3_u01_r12_network.node[14].content_store 	decision_ratio[14] 	1
scalar tree_4_3_u01_r12_network.node[15].core_layer 	interests[15] 	12014
scalar tree_4_3_u01_r12_network.node[15].core_layer 	data[15] 	10202
scalar tree_4_3_u01_r12_network.node[15].content_store 	p_hit[15] 	0.1507408023972
scalar tree_4_3_u01_r12_network.node[15].content_store 	hits[15] 	1811
scalar tree_4_3_u01_r12_network.node[15].content_store 	misses[15] 	10203
scalar tree_4_3_u01_r12_network.node[15].content_store 	decision_yes[15] 	10202
scalar tree_4_3_u01_r12_network.node[15].content_store 	decision_no[15] 	0
scalar tree_4_3_u01_r12_network.node[15].content_store 	decision_ratio[15] 	1
scalar tree_4_3_u01_r12_network.node[16].core_layer 	interests[16] 	12001
scalar tree_4_3_u01_r12_network.node[16].core_layer 	data[16] 	10085
scalar tree_4_3_u01_r12_network.node[16].content_store 	p_hit[16] 	0.15965336221982
scalar tree_4_3_u01_r12_network.node[16].content_store 	hits[16] 	1916
scalar tree_4_3_u01_r12_network.node[16].content_store 	misses[16] 	10085
scalar tree_4_3_u01_r12_network.node[16].content_store 	decision_yes[16] 	10085
scalar tree_4_3_u01_r12_network.node[16].content_store 	decision_no[16] 	0
scalar tree_4_3_u01_r12_network.node[16].content_store 	decision_ratio[16] 	1
scalar tree_4_3_u01_r12_network.node[17].core_layer 	interests[17] 	12025
scalar tree_4_3_u01_r12_network.node[17].core_layer 	data[17] 	10048
scalar tree_4_3_u01_r12_network.node[17].content_store 	p_hit[17] 	0.16440748440748
scalar tree_4_3_u01_r12_network.node[17].content_store 	hits[17] 	1977
scalar tree_4_3_u01_r12_network.node[17].content_store 	misses[17] 	10048
scalar tree_4_3_u01_r12_network.node[17].content_store 	decision_yes[17] 	10048
scalar tree_4_3_u01_r12_network.node[17].content_store 	decision_no[17] 	0
scalar tree_4_3_u01_r12_network.node[17].content_store 	decision_ratio[17] 	1
scalar tree_4_3_u01_r12_network.node[18].core_layer 	interests[18] 	12026
scalar tree_4_3_u01_r12_network.node[18].core_layer 	data[18] 	10187
scalar tree_4_3_u01_r12_network.node[18].content_store 	p_hit[18] 	0.1530018293697
scalar tree_4_3_u01_r12_network.node[18].content_store 	hits[18] 	1840
scalar tree_4_3_u01_r12_network.node[18].content_store 	misses[18] 	10186
scalar tree_4_3_u01_r12_network.node[18].content_store 	decision_yes[18] 	10187
scalar tree_4_3_u01_r12_network.node[18].content_store 	decision_no[18] 	0
scalar tree_4_3_u01_r12_network.node[18].content_store 	decision_ratio[18] 	1
scalar tree_4_3_u01_r12_network.node[19].core_layer 	interests[19] 	11961
scalar tree_4_3_u01_r12_network.node[19].core_layer 	data[19] 	10124
scalar tree_4_3_u01_r12_network.node[19].content_store 	p_hit[19] 	0.15358247638157
scalar tree_4_3_u01_r12_network.node[19].content_store 	hits[19] 	1837
scalar tree_4_3_u01_r12_network.node[19].content_store 	misses[19] 	10124
scalar tree_4_3_u01_r12_network.node[19].content_store 	decision_yes[19] 	10124
scalar tree_4_3_u01_r12_network.node[19].content_store 	decision_no[19] 	0
scalar tree_4_3_u01_r12_network.node[19].content_store 	decision_ratio[19] 	1
scalar tree_4_3_u01_r12_network.node[20].core_layer 	interests[20] 	12083
scalar tree_4_3_u01_r12_network.node[20].core_layer 	data[20] 	10158
scalar tree_4_3_u01_r12_network.node[20].content_store 	p_hit[20] 	0.15923197881321
scalar tree_4_3_u01_r12_network.node[20].content_store 	hits[20] 	1924
scalar tree_4_3_u01_r12_network.node[20].content_store 	misses[20] 	10159
scalar tree_4_3_u01_r12_network.node[20].content_store 	decision_yes[20] 	10158
scalar tree_4_3_u01_r12_network.node[20].content_store 	decision_no[20] 	0
scalar tree_4_3_u01_r12_network.node[20].content_store 	decision_ratio[20] 	1
scalar tree_4_3_u01_r12_network.node[21].core_layer 	interests[21] 	11939
scalar tree_4_3_u01_r12_network.node[21].core_layer 	data[21] 	10077
scalar tree_4_3_u01_r12_network.node[21].content_store 	p_hit[21] 	0.15587570148254
scalar tree_4_3_u01_r12_network.node[21].content_store 	hits[21] 	1861
scalar tree_4_3_u01_r12_network.node[21].content_store 	misses[21] 	10078
scalar tree_4_3_u01_r12_network.node[21].content_store 	decision_yes[21] 	10077
scalar tree_4_3_u01_r12_network.node[21].content_store 	decision_no[21] 	0
scalar tree_4_3_u01_r12_network.node[21].content_store 	decision_ratio[21] 	1
scalar tree_4_3_u01_r12_network.node[22].core_layer 	interests[22] 	12127
scalar tree_4_3_u01_r12_network.node[22].core_layer 	data[22] 	10298
scalar tree_4_3_u01_r12_network.node[22].content_store 	p_hit[22] 	0.15073802259421
scalar tree_4_3_u01_r12_network.node[22].content_store 	hits[22] 	1828
scalar tree_4_3_u01_r12_network.node[22].content_store 	misses[22] 	10299
scalar tree_4_3_u01_r12_network.node[22].content_store 	decision_yes[22] 	10298
scalar tree_4_3_u01_r12_network.node[22].content_store 	decision_no[22] 	0
scalar tree_4_3_u01_r12_network.node[22].content_store 	decision_ratio[22] 	1
scalar tree_4_3_u01_r12_network.node[23].core_layer 	interests[23] 	11921
scalar tree_4_3_u01_r12_network.node[23].core_layer 	data[23] 	10132
scalar tree_4_3_u01_r12_network.node[23].content_store 	p_hit[23] 	0.15007130274306
scalar tree_4_3_u01_r12_network.node[23].content_store 	hits[23] 	1789
scalar tree_4_3_u01_r12_network.node[23].content_store 	misses[23] 	10132
scalar tree_4_3_u01_r12_network.node[23].content_store 	decision_yes[23] 	10132
scalar tree_4_3_u01_r12_network.node[23].content_store 	decision_no[23] 	0
scalar tree_4_3_u01_r12_network.node[23].content_store 	decision_ratio[23] 	1
scalar tree_4_3_u01_r12_network.node[24].core_layer 	interests[24] 	12147
scalar tree_4_3_u01_r12_network.node[24].core_layer 	data[24] 	10263
scalar tree_4_3_u01_r12_network.node[24].content_store 	p_hit[24] 	0.15501769984358
scalar tree_4_3_u01_r12_network.node[24].content_store 	hits[24] 	1883
scalar tree_4_3_u01_r12_network.node[24].content_store 	misses[24] 	10264
scalar tree_4_3_u01_r12_network.node[24].content_store 	decision_yes[24] 	10263
scalar tree_4_3_u01_r12_network.node[24].content_store 	decision_no[24] 	0
scalar tree_4_3_u01_r12_network.node[24].content_store 	decision_ratio[24] 	1
scalar tree_4_3_u01_r12_network.node[25].core_layer 	interests[25] 	11860
scalar tree_4_3_u01_r12_network.node[25].core_layer 	data[25] 	10085
scalar tree_4_3_u01_r12_network.node[25].content_store 	p_hit[25] 	0.1495784148398
scalar tree_4_3_u01_r12_network.node[25].content_store 	hits[25] 	1774
scalar tree_4_3_u01_r12_network.node[25].content_store 	misses[25] 	10086
scalar tree_4_3_u01_r12_network.node[25].content_store 	decision_yes[25] 	10085
scalar tree_4_3_u01_r12_network.node[25].content_store 	decision_no[25] 	0
scalar tree_4_3_u01_r12_network.node[25].content_store 	decision_ratio[25] 	1
scalar tree_4_3_u01_r12_network.node[26].core_layer 	interests[26] 	11873
scalar tree_4_3_u01_r12_network.node[26].core_layer 	data[26] 	9954
scalar tree_4_3_u01_r12_network.node[26].content_store 	p_hit[26] 	0.16154299671524
scalar tree_4_3_u01_r12_network.node[26].content_store 	hits[26] 	1918
scalar tree_4_3_u01_r12_network.node[26].content_store 	misses[26] 	9955
scalar tree_4_3_u01_r12_network.node[26].content_store 	decision_yes[26] 	9954
scalar tree_4_3_u01_r12_network.node[26].content_store 	decision_no[26] 	0
scalar tree_4_3_u01_r12_network.node[26].content_store 	decision_ratio[26] 	1
scalar tree_4_3_u01_r12_network.node[27].core_layer 	interests[27] 	12037
scalar tree_4_3_u01_r12_network.node[27].core_layer 	data[27] 	10123
scalar tree_4_3_u01_r12_network.node[27].content_store 	p_hit[27] 	0.15900972002991
scalar tree_4_3_u01_r12_network.node[27].content_store 	hits[27] 	1914
scalar tree_4_3_u01_r12_network.node[27].content_store 	misses[27] 	10123
scalar tree_4_3_u01_r12_network.node[27].content_store 	decision_yes[27] 	10123
scalar tree_4_3_u01_r12_network.node[27].content_store 	decision_no[27] 	0
scalar tree_4_3_u01_r12_network.node[27].content_store 	decision_ratio[27] 	1
scalar tree_4_3_u01_r12_network.node[28].core_layer 	interests[28] 	12014
scalar tree_4_3_u01_r12_network.node[28].core_layer 	data[28] 	10151
scalar tree_4_3_u01_r12_network.node[28].content_store 	p_hit[28] 	0.15490261361745
scalar tree_4_3_u01_r12_network.node[28].content_store 	hits[28] 	1861
scalar tree_4_3_u01_r12_network.node[28].content_store 	misses[28] 	10153
scalar tree_4_3_u01_r12_network.node[28].content_store 	decision_yes[28] 	10151
scalar tree_4_3_u01_r12_network.node[28].content_store 	decision_no[28] 	0
scalar tree_4_3_u01_r12_network.node[28].content_store 	decision_ratio[28] 	1
scalar tree_4_3_u01_r12_network.node[29].core_layer 	interests[29] 	12145
scalar tree_4_3_u01_r12_network.node[29].core_layer 	data[29] 	10203
scalar tree_4_3_u01_r12_network.node[29].content_store 	p_hit[29] 	0.15981885549609
scalar tree_4_3_u01_r12_network.node[29].content_store 	hits[29] 	1941
scalar tree_4_3_u01_r12_network.node[29].content_store 	misses[29] 	10204
scalar tree_4_3_u01_r12_network.node[29].content_store 	decision_yes[29] 	10203
scalar tree_4_3_u01_r12_network.node[29].content_store 	decision_no[29] 	0
scalar tree_4_3_u01_r12_network.node[29].content_store 	decision_ratio[29] 	1
scalar tree_4_3_u01_r12_network.node[30].core_layer 	interests[30] 	11844
scalar tree_4_3_u01_r12_network.node[30].core_layer 	data[30] 	9976
scalar tree_4_3_u01_r12_network.node[30].content_store 	p_hit[30] 	0.15771698750422
scalar tree_4_3_u01_r12_network.node[30].content_store 	hits[30] 	1868
scalar tree_4_3_u01_r12_network.node[30].content_store 	misses[30] 	9976
scalar tree_4_3_u01_r12_network.node[30].content_store 	decision_yes[30] 	9976
scalar tree_4_3_u01_r12_network.node[30].content_store 	decision_no[30] 	0
scalar tree_4_3_u01_r12_network.node[30].content_store 	decision_ratio[30] 	1
scalar tree_4_3_u01_r12_network.node[31].core_layer 	interests[31] 	12001
scalar tree_4_3_u01_r12_network.node[31].core_layer 	data[31] 	10170
scalar tree_4_3_u01_r12_network.node[31].content_store 	p_hit[31] 	0.15257061911507
scalar tree_4_3_u01_r12_network.node[31].content_store 	hits[31] 	1831
scalar tree_4_3_u01_r12_network.node[31].content_store 	misses[31] 	10170
scalar tree_4_3_u01_r12_network.node[31].content_store 	decision_yes[31] 	10170
scalar tree_4_3_u01_r12_network.node[31].content_store 	decision_no[31] 	0
scalar tree_4_3_u01_r12_network.node[31].content_store 	decision_ratio[31] 	1
scalar tree_4_3_u01_r12_network.node[32].core_layer 	interests[32] 	11941
scalar tree_4_3_u01_r12_network.node[32].core_layer 	data[32] 	10096
scalar tree_4_3_u01_r12_network.node[32].content_store 	p_hit[32] 	0.15442592747676
scalar tree_4_3_u01_r12_network.node[32].content_store 	hits[32] 	1844
scalar tree_4_3_u01_r12_network.node[32].content_store 	misses[32] 	10097
scalar tree_4_3_u01_r12_network.node[32].content_store 	decision_yes[32] 	10096
scalar tree_4_3_u01_r12_network.node[32].content_store 	decision_no[32] 	0
scalar tree_4_3_u01_r12_network.node[32].content_store 	decision_ratio[32] 	1
scalar tree_4_3_u01_r12_network.node[33].core_layer 	interests[33] 	11987
scalar tree_4_3_u01_r12_network.node[33].core_layer 	data[33] 	10096
scalar tree_4_3_u01_r12_network.node[33].content_store 	p_hit[33] 	0.15775423375323
scalar tree_4_3_u01_r12_network.node[33].content_store 	hits[33] 	1891
scalar tree_4_3_u01_r12_network.node[33].content_store 	misses[33] 	10096
scalar tree_4_3_u01_r12_network.node[33].content_store 	decision_yes[33] 	10096
scalar tree_4_3_u01_r12_network.node[33].content_store 	decision_no[33] 	0
scalar tree_4_3_u01_r12_network.node[33].content_store 	decision_ratio[33] 	1
scalar tree_4_3_u01_r12_network.node[34].core_layer 	interests[34] 	11868
scalar tree_4_3_u01_r12_network.node[34].core_layer 	data[34] 	10004
scalar tree_4_3_u01_r12_network.node[34].content_store 	p_hit[34] 	0.15706100438153
scalar tree_4_3_u01_r12_network.node[34].content_store 	hits[34] 	1864
scalar tree_4_3_u01_r12_network.node[34].content_store 	misses[34] 	10004
scalar tree_4_3_u01_r12_network.node[34].content_store 	decision_yes[34] 	10004
scalar tree_4_3_u01_r12_network.node[34].content_store 	decision_no[34] 	0
scalar tree_4_3_u01_r12_network.node[34].content_store 	decision_ratio[34] 	1
scalar tree_4_3_u01_r12_network.node[35].core_layer 	interests[35] 	12178
scalar tree_4_3_u01_r12_network.node[35].core_layer 	data[35] 	10223
scalar tree_4_3_u01_r12_network.node[35].content_store 	p_hit[35] 	0.16045327640007
scalar tree_4_3_u01_r12_network.node[35].content_store 	hits[35] 	1954
scalar tree_4_3_u01_r12_network.node[35].content_store 	misses[35] 	10224
scalar tree_4_3_u01_r12_network.node[35].content_store 	decision_yes[35] 	10223
scalar tree_4_3_u01_r12_network.node[35].content_store 	decision_no[35] 	0
scalar tree_4_3_u01_r12_network.node[35].content_store 	decision_ratio[35] 	1
scalar tree_4_3_u01_r12_network.node[36].core_layer 	interests[36] 	11830
scalar tree_4_3_u01_r12_network.node[36].core_layer 	data[36] 	10051
scalar tree_4_3_u01_r12_network.node[36].content_store 	p_hit[36] 	0.15038038884193
scalar tree_4_3_u01_r12_network.node[36].content_store 	hits[36] 	1779
scalar tree_4_3_u01_r12_network.node[36].content_store 	misses[36] 	10051
scalar tree_4_3_u01_r12_network.node[36].content_store 	decision_yes[36] 	10051
scalar tree_4_3_u01_r12_network.node[36].content_store 	decision_no[36] 	0
scalar tree_4_3_u01_r12_network.node[36].content_store 	decision_ratio[36] 	1
scalar tree_4_3_u01_r12_network.node[37].core_layer 	interests[37] 	12061
scalar tree_4_3_u01_r12_network.node[37].core_layer 	data[37] 	10160
scalar tree_4_3_u01_r12_network.node[37].content_store 	p_hit[37] 	0.15753254290689
scalar tree_4_3_u01_r12_network.node[37].content_store 	hits[37] 	1900
scalar tree_4_3_u01_r12_network.node[37].content_store 	misses[37] 	10161
scalar tree_4_3_u01_r12_network.node[37].content_store 	decision_yes[37] 	10160
scalar tree_4_3_u01_r12_network.node[37].content_store 	decision_no[37] 	0
scalar tree_4_3_u01_r12_network.node[37].content_store 	decision_ratio[37] 	1
scalar tree_4_3_u01_r12_network.node[38].core_layer 	interests[38] 	12014
scalar tree_4_3_u01_r12_network.node[38].core_layer 	data[38] 	10144
scalar tree_4_3_u01_r12_network.node[38].content_store 	p_hit[38] 	0.15565173963709
scalar tree_4_3_u01_r12_network.node[38].content_store 	hits[38] 	1870
scalar tree_4_3_u01_r12_network.node[38].content_store 	misses[38] 	10144
scalar tree_4_3_u01_r12_network.node[38].content_store 	decision_yes[38] 	10144
scalar tree_4_3_u01_r12_network.node[38].content_store 	decision_no[38] 	0
scalar tree_4_3_u01_r12_network.node[38].content_store 	decision_ratio[38] 	1
scalar tree_4_3_u01_r12_network.node[39].core_layer 	interests[39] 	12103
scalar tree_4_3_u01_r12_network.node[39].core_layer 	data[39] 	10315
scalar tree_4_3_u01_r12_network.node[39].content_store 	p_hit[39] 	0.14773196728084
scalar tree_4_3_u01_r12_network.node[39].content_store 	hits[39] 	1788
scalar tree_4_3_u01_r12_network.node[39].content_store 	misses[39] 	10315
scalar tree_4_3_u01_r12_network.node[39].content_store 	decision_yes[39] 	10315
scalar tree_4_3_u01_r12_network.node[39].content_store 	decision_no[39] 	0
scalar tree_4_3_u01_r12_network.node[39].content_store 	decision_ratio[39] 	1
scalar tree_4_3_u01_r12_network.client[13] 	hdistance[13] 	3.2501694340901
scalar tree_4_3_u01_r12_network.client[13] 	downloads[13] 	11804
scalar tree_4_3_u01_r12_network.client[13] 	avg_time[13] 	0.004926118287
scalar tree_4_3_u01_r12_network.client[14] 	hdistance[14] 	3.2487496925474
scalar tree_4_3_u01_r12_network.client[14] 	downloads[14] 	12197
scalar tree_4_3_u01_r12_network.client[14] 	avg_time[14] 	0.004926573018
scalar tree_4_3_u01_r12_network.client[15] 	hdistance[15] 	3.2721218679764
scalar tree_4_3_u01_r12_network.client[15] 	downloads[15] 	12013
scalar tree_4_3_u01_r12_network.client[15] 	avg_time[15] 	0.004964125239
scalar tree_4_3_u01_r12_network.client[16] 	hdistance[16] 	3.232230647446
scalar tree_4_3_u01_r12_network.client[16] 	downloads[16] 	12001
scalar tree_4_3_u01_r12_network.client[16] 	avg_time[16] 	0.004904161084
scalar tree_4_3_u01_r12_network.client[17] 	hdistance[17] 	3.2113929313929
scalar tree_4_3_u01_r12_network.client[17] 	downloads[17] 	12025
scalar tree_4_3_u01_r12_network.client[17] 	avg_time[17] 	0.004870017784
scalar tree_4_3_u01_r12_network.client[18] 	hdistance[18] 	3.2669826224329
scalar tree_4_3_u01_r12_network.client[18] 	downloads[18] 	12027
scalar tree_4_3_u01_r12_network.client[18] 	avg_time[18] 	0.004954515997
scalar tree_4_3_u01_r12_network.client[19] 	hdistance[19] 	3.2697934955271
scalar tree_4_3_u01_r12_network.client[19] 	downloads[19] 	11961
scalar tree_4_3_u01_r12_network.client[19] 	avg_time[19] 	0.004953891491
scalar tree_4_3_u01_r12_network.client[20] 	hdistance[20] 	3.2363847045191
scalar tree_4_3_u01_r12_network.client[20] 	downloads[20] 	12082
scalar tree_4_3_u01_r12_network.client[20] 	avg_time[20] 	0.004907262301
scalar tree_4_3_u01_r12_network.client[21] 	hdistance[21] 	3.255821745686
scalar tree_4_3_u01_r12_network.client[21] 	downloads[21] 	11938
scalar tree_4_3_u01_r12_network.client[21] 	avg_time[21] 	0.004937981377
scalar tree_4_3_u01_r12_network.client[22] 	hdistance[22] 	3.2594425202045
scalar tree_4_3_u01_r12_network.client[22] 	downloads[22] 	12126
scalar tree_4_3_u01_r12_network.client[22] 	avg_time[22] 	0.004942233488
scalar tree_4_3_u01_r12_network.client[23] 	hdistance[23] 	3.2740541900847
scalar tree_4_3_u01_r12_network.client[23] 	downloads[23] 	11921
scalar tree_4_3_u01_r12_network.client[23] 	avg_time[23] 	0.004963743707
scalar tree_4_3_u01_r12_network.client[24] 	hdistance[24] 	3.250864482134
scalar tree_4_3_u01_r12_network.client[24] 	downloads[24] 	12146
scalar tree_4_3_u01_r12_network.client[24] 	avg_time[24] 	0.004928840728
scalar tree_4_3_u01_r12_network.client[25] 	hdistance[25] 	3.2748123787841
scalar tree_4_3_u01_r12_network.client[25] 	downloads[25] 	11859
scalar tree_4_3_u01_r12_network.client[25] 	avg_time[25] 	0.004962185385
scalar tree_4_3_u01_r12_network.client[26] 	hdistance[26] 	3.2352594339623
scalar tree_4_3_u01_r12_network.client[26] 	downloads[26] 	11872
scalar tree_4_3_u01_r12_network.client[26] 	avg_time[26] 	0.004906861641
scalar tree_4_3_u01_r12_network.client[27] 	hdistance[27] 	3.2444961369112
scalar tree_4_3_u01_r12_network.client[27] 	downloads[27] 	12037
scalar tree_4_3_u01_r12_network.client[27] 	avg_time[27] 	0.004920910407
scalar tree_4_3_u01_r12_network.client[28] 	hdistance[28] 	3.2570762570763
scalar tree_4_3_u01_r12_network.client[28] 	downloads[28] 	12012
scalar tree_4_3_u01_r12_network.client[28] 	avg_time[28] 	0.004934331888
scalar tree_4_3_u01_r12_network.client[29] 	hdistance[29] 	3.2294960474308
scalar tree_4_3_u01_r12_network.client[29] 	downloads[29] 	12144
scalar tree_4_3_u01_r12_network.client[29] 	avg_time[29] 	0.004897125704
scalar tree_4_3_u01_r12_network.client[30] 	hdistance[30] 	3.2482269503546
scalar tree_4_3_u01_r12_network.client[30] 	downloads[30] 	11844
scalar tree_4_3_u01_r12_network.client[30] 	avg_time[30] 	0.004923344164
scalar tree_4_3_u01_r12_network.client[31] 	hdistance[31] 	3.2672277310224
scalar tree_4_3_u01_r12_network.client[31] 	downloads[31] 	12001
scalar tree_4_3_u01_r12_network.client[31] 	avg_time[31] 	0.004955250692
scalar tree_4_3_u01_r12_network.client[32] 	hdistance[32] 	3.2539363484087
scalar tree_4_3_u01_r12_network.client[32] 	downloads[32] 	11940
scalar tree_4_3_u01_r12_network.client[32] 	avg_time[32] 	0.004935883233
scalar tree_4_3_u01_r12_network.client[33] 	hdistance[33] 	3.2512722115625
scalar tree_4_3_u01_r12_network.client[33] 	downloads[33] 	11987
scalar tree_4_3_u01_r12_network.client[33] 	avg_time[33] 	0.004928833835
scalar tree_4_3_u01_r12_network.client[34] 	hdistance[34] 	3.2541287495787
scalar tree_4_3_u01_r12_network.client[34] 	downloads[34] 	11868
scalar tree_4_3_u01_r12_network.client[34] 	avg_time[34] 	0.004926680372
scalar tree_4_3_u01_r12_network.client[35] 	hdistance[35] 	3.2330623306233
scalar tree_4_3_u01_r12_network.client[35] 	downloads[35] 	12177
scalar tree_4_3_u01_r12_network.client[35] 	avg_time[35] 	0.004898962459
scalar tree_4_3_u01_r12_network.client[36] 	hdistance[36] 	3.2713440405748
scalar tree_4_3_u01_r12_network.client[36] 	downloads[36] 	11830
scalar tree_4_3_u01_r12_network.client[36] 	avg_time[36] 	0.004962055041
scalar tree_4_3_u01_r12_network.client[37] 	hdistance[37] 	3.2534825870647
scalar tree_4_3_u01_r12_network.client[37] 	downloads[37] 	12060
scalar tree_4_3_u01_r12_network.client[37] 	avg_time[37] 	0.004931575922
scalar tree_4_3_u01_r12_network.client[38] 	hdistance[38] 	3.2542034293324
scalar tree_4_3_u01_r12_network.client[38] 	downloads[38] 	12014
scalar tree_4_3_u01_r12_network.client[38] 	avg_time[38] 	0.004936670352
scalar tree_4_3_u01_r12_network.client[39] 	hdistance[39] 	3.2882756341403
scalar tree_4_3_u01_r12_network.client[39] 	downloads[39] 	12103
scalar tree_4_3_u01_r12_network.client[39] 	avg_time[39] 	0.004988538486
