version 2
run General-21-20160820-14:01:31-2644
attr a 0.9
attr cd lce
attr configname General
attr cr lru
attr datetime 20160820-14:01:31
attr experiment General
attr fsize 1
attr inifile hw5115/scenario_A/SPR-LCE.ini
attr iterationvars "$name=tree_4_3, $un=01, $rep=2, $cd=lce, $cr=lru, $fsize=1, $a=0.9, $sl=spr, $ttl=1000, $variance=0.05"
attr iterationvars2 "$name=tree_4_3, $un=01, $rep=2, $cd=lce, $cr=lru, $fsize=1, $a=0.9, $sl=spr, $ttl=1000, $variance=0.05, $repetition=0"
attr measurement "$name=tree_4_3, $un=01, $rep=2, $cd=lce, $cr=lru, $fsize=1, $a=0.9, $sl=spr, $ttl=1000, $variance=0.05"
attr name tree_4_3
attr network networks.${name}_u${un}_r${rep}_network
attr processid 2644
attr rep 2
attr repetition 0
attr replication #0
attr resultdir results
attr runnumber 21
attr seedset 2
attr sl spr
attr ttl 1000
attr un 01
attr variance 0.05

scalar . 	a 	0.9
scalar . 	fsize 	1
scalar . 	rep 	2
scalar . 	ttl 	1000
scalar . 	un 	01
scalar . 	variance 	0.05
scalar tree_4_3_u01_r2_network.content_distribution 	repo-0 	0
scalar tree_4_3_u01_r2_network.content_distribution 	client-0 	13
scalar tree_4_3_u01_r2_network.content_distribution 	client-1 	14
scalar tree_4_3_u01_r2_network.content_distribution 	client-2 	15
scalar tree_4_3_u01_r2_network.content_distribution 	client-3 	16
scalar tree_4_3_u01_r2_network.content_distribution 	client-4 	17
scalar tree_4_3_u01_r2_network.content_distribution 	client-5 	18
scalar tree_4_3_u01_r2_network.content_distribution 	client-6 	19
scalar tree_4_3_u01_r2_network.content_distribution 	client-7 	20
scalar tree_4_3_u01_r2_network.content_distribution 	client-8 	21
scalar tree_4_3_u01_r2_network.content_distribution 	client-9 	22
scalar tree_4_3_u01_r2_network.content_distribution 	client-10 	23
scalar tree_4_3_u01_r2_network.content_distribution 	client-11 	24
scalar tree_4_3_u01_r2_network.content_distribution 	client-12 	25
scalar tree_4_3_u01_r2_network.content_distribution 	client-13 	26
scalar tree_4_3_u01_r2_network.content_distribution 	client-14 	27
scalar tree_4_3_u01_r2_network.content_distribution 	client-15 	28
scalar tree_4_3_u01_r2_network.content_distribution 	client-16 	29
scalar tree_4_3_u01_r2_network.content_distribution 	client-17 	30
scalar tree_4_3_u01_r2_network.content_distribution 	client-18 	31
scalar tree_4_3_u01_r2_network.content_distribution 	client-19 	32
scalar tree_4_3_u01_r2_network.content_distribution 	client-20 	33
scalar tree_4_3_u01_r2_network.content_distribution 	client-21 	34
scalar tree_4_3_u01_r2_network.content_distribution 	client-22 	35
scalar tree_4_3_u01_r2_network.content_distribution 	client-23 	36
scalar tree_4_3_u01_r2_network.content_distribution 	client-24 	37
scalar tree_4_3_u01_r2_network.content_distribution 	client-25 	38
scalar tree_4_3_u01_r2_network.content_distribution 	client-26 	39
scalar tree_4_3_u01_r2_network.content_distribution 	repo-0_card 	100000
scalar tree_4_3_u01_r2_network.content_distribution 	repo-0_price 	0
scalar tree_4_3_u01_r2_network.statistics 	stabilization_time 	496.1
scalar tree_4_3_u01_r2_network.statistics 	p_hit 	0.11468278505521
scalar tree_4_3_u01_r2_network.statistics 	interests 	28075.925
scalar tree_4_3_u01_r2_network.statistics 	data 	19962.775
scalar tree_4_3_u01_r2_network.statistics 	hdistance 	3.2465316386827
scalar tree_4_3_u01_r2_network.statistics 	avg_time 	0.004921485896
scalar tree_4_3_u01_r2_network.statistics 	downloads 	324499
scalar tree_4_3_u01_r2_network.statistics 	total_cost 	0
scalar tree_4_3_u01_r2_network.statistics 	total_replicas 	100000
scalar tree_4_3_u01_r2_network.statistics 	inner_hit 	0.21446291051744
scalar tree_4_3_u01_r2_network.node[0].core_layer 	interests[0] 	259620
scalar tree_4_3_u01_r2_network.node[0].core_layer 	repo_load[0] 	254906
scalar tree_4_3_u01_r2_network.node[0].core_layer 	data[0] 	0
scalar tree_4_3_u01_r2_network.node[0].core_layer 	repo_int[0] 	254906
scalar tree_4_3_u01_r2_network.node[0].content_store 	p_hit[0] 	0.018157306833064
scalar tree_4_3_u01_r2_network.node[0].content_store 	hits[0] 	4714
scalar tree_4_3_u01_r2_network.node[0].content_store 	misses[0] 	254906
scalar tree_4_3_u01_r2_network.node[0].content_store 	decision_yes[0] 	254906
scalar tree_4_3_u01_r2_network.node[0].content_store 	decision_no[0] 	0
scalar tree_4_3_u01_r2_network.node[0].content_store 	decision_ratio[0] 	1
scalar tree_4_3_u01_r2_network.node[1].core_layer 	interests[1] 	117862
scalar tree_4_3_u01_r2_network.node[1].core_layer 	data[1] 	114960
scalar tree_4_3_u01_r2_network.node[1].content_store 	p_hit[1] 	0.024460810099947
scalar tree_4_3_u01_r2_network.node[1].content_store 	hits[1] 	2883
scalar tree_4_3_u01_r2_network.node[1].content_store 	misses[1] 	114979
scalar tree_4_3_u01_r2_network.node[1].content_store 	decision_yes[1] 	114960
scalar tree_4_3_u01_r2_network.node[1].content_store 	decision_no[1] 	0
scalar tree_4_3_u01_r2_network.node[1].content_store 	decision_ratio[1] 	1
scalar tree_4_3_u01_r2_network.node[2].core_layer 	interests[2] 	88233
scalar tree_4_3_u01_r2_network.node[2].core_layer 	data[2] 	86250
scalar tree_4_3_u01_r2_network.node[2].content_store 	p_hit[2] 	0.022417916199155
scalar tree_4_3_u01_r2_network.node[2].content_store 	hits[2] 	1978
scalar tree_4_3_u01_r2_network.node[2].content_store 	misses[2] 	86255
scalar tree_4_3_u01_r2_network.node[2].content_store 	decision_yes[2] 	86250
scalar tree_4_3_u01_r2_network.node[2].content_store 	decision_no[2] 	0
scalar tree_4_3_u01_r2_network.node[2].content_store 	decision_ratio[2] 	1
scalar tree_4_3_u01_r2_network.node[3].core_layer 	interests[3] 	59428
scalar tree_4_3_u01_r2_network.node[3].core_layer 	data[3] 	58409
scalar tree_4_3_u01_r2_network.node[3].content_store 	p_hit[3] 	0.017129972403581
scalar tree_4_3_u01_r2_network.node[3].content_store 	hits[3] 	1018
scalar tree_4_3_u01_r2_network.node[3].content_store 	misses[3] 	58410
scalar tree_4_3_u01_r2_network.node[3].content_store 	decision_yes[3] 	58409
scalar tree_4_3_u01_r2_network.node[3].content_store 	decision_no[3] 	0
scalar tree_4_3_u01_r2_network.node[3].content_store 	decision_ratio[3] 	1
scalar tree_4_3_u01_r2_network.node[4].core_layer 	interests[4] 	40576
scalar tree_4_3_u01_r2_network.node[4].core_layer 	data[4] 	39249
scalar tree_4_3_u01_r2_network.node[4].content_store 	p_hit[4] 	0.032605481072555
scalar tree_4_3_u01_r2_network.node[4].content_store 	hits[4] 	1323
scalar tree_4_3_u01_r2_network.node[4].content_store 	misses[4] 	39253
scalar tree_4_3_u01_r2_network.node[4].content_store 	decision_yes[4] 	39249
scalar tree_4_3_u01_r2_network.node[4].content_store 	decision_no[4] 	0
scalar tree_4_3_u01_r2_network.node[4].content_store 	decision_ratio[4] 	1
scalar tree_4_3_u01_r2_network.node[5].core_layer 	interests[5] 	20366
scalar tree_4_3_u01_r2_network.node[5].core_layer 	data[5] 	19916
scalar tree_4_3_u01_r2_network.node[5].content_store 	p_hit[5] 	0.022095649612099
scalar tree_4_3_u01_r2_network.node[5].content_store 	hits[5] 	450
scalar tree_4_3_u01_r2_network.node[5].content_store 	misses[5] 	19916
scalar tree_4_3_u01_r2_network.node[5].content_store 	decision_yes[5] 	19916
scalar tree_4_3_u01_r2_network.node[5].content_store 	decision_no[5] 	0
scalar tree_4_3_u01_r2_network.node[5].content_store 	decision_ratio[5] 	1
scalar tree_4_3_u01_r2_network.node[6].core_layer 	interests[6] 	30207
scalar tree_4_3_u01_r2_network.node[6].core_layer 	data[6] 	29327
scalar tree_4_3_u01_r2_network.node[6].content_store 	p_hit[6] 	0.029066110504188
scalar tree_4_3_u01_r2_network.node[6].content_store 	hits[6] 	878
scalar tree_4_3_u01_r2_network.node[6].content_store 	misses[6] 	29329
scalar tree_4_3_u01_r2_network.node[6].content_store 	decision_yes[6] 	29327
scalar tree_4_3_u01_r2_network.node[6].content_store 	decision_no[6] 	0
scalar tree_4_3_u01_r2_network.node[6].content_store 	decision_ratio[6] 	1
scalar tree_4_3_u01_r2_network.node[7].core_layer 	interests[7] 	40591
scalar tree_4_3_u01_r2_network.node[7].core_layer 	data[7] 	39342
scalar tree_4_3_u01_r2_network.node[7].content_store 	p_hit[7] 	0.030622551797196
scalar tree_4_3_u01_r2_network.node[7].content_store 	hits[7] 	1243
scalar tree_4_3_u01_r2_network.node[7].content_store 	misses[7] 	39348
scalar tree_4_3_u01_r2_network.node[7].content_store 	decision_yes[7] 	39342
scalar tree_4_3_u01_r2_network.node[7].content_store 	decision_no[7] 	0
scalar tree_4_3_u01_r2_network.node[7].content_store 	decision_ratio[7] 	1
scalar tree_4_3_u01_r2_network.node[8].core_layer 	interests[8] 	29966
scalar tree_4_3_u01_r2_network.node[8].core_layer 	data[8] 	29092
scalar tree_4_3_u01_r2_network.node[8].content_store 	p_hit[8] 	0.029099646265768
scalar tree_4_3_u01_r2_network.node[8].content_store 	hits[8] 	872
scalar tree_4_3_u01_r2_network.node[8].content_store 	misses[8] 	29094
scalar tree_4_3_u01_r2_network.node[8].content_store 	decision_yes[8] 	29092
scalar tree_4_3_u01_r2_network.node[8].content_store 	decision_no[8] 	0
scalar tree_4_3_u01_r2_network.node[8].content_store 	decision_ratio[8] 	1
scalar tree_4_3_u01_r2_network.node[9].core_layer 	interests[9] 	20228
scalar tree_4_3_u01_r2_network.node[9].core_layer 	data[9] 	19798
scalar tree_4_3_u01_r2_network.node[9].content_store 	p_hit[9] 	0.021257662645837
scalar tree_4_3_u01_r2_network.node[9].content_store 	hits[9] 	430
scalar tree_4_3_u01_r2_network.node[9].content_store 	misses[9] 	19798
scalar tree_4_3_u01_r2_network.node[9].content_store 	decision_yes[9] 	19798
scalar tree_4_3_u01_r2_network.node[9].content_store 	decision_no[9] 	0
scalar tree_4_3_u01_r2_network.node[9].content_store 	decision_ratio[9] 	1
scalar tree_4_3_u01_r2_network.node[10].core_layer 	interests[10] 	30219
scalar tree_4_3_u01_r2_network.node[10].core_layer 	data[10] 	29369
scalar tree_4_3_u01_r2_network.node[10].content_store 	p_hit[10] 	0.028028723650683
scalar tree_4_3_u01_r2_network.node[10].content_store 	hits[10] 	847
scalar tree_4_3_u01_r2_network.node[10].content_store 	misses[10] 	29372
scalar tree_4_3_u01_r2_network.node[10].content_store 	decision_yes[10] 	29369
scalar tree_4_3_u01_r2_network.node[10].content_store 	decision_no[10] 	0
scalar tree_4_3_u01_r2_network.node[10].content_store 	decision_ratio[10] 	1
scalar tree_4_3_u01_r2_network.node[11].core_layer 	interests[11] 	30678
scalar tree_4_3_u01_r2_network.node[11].core_layer 	data[11] 	29831
scalar tree_4_3_u01_r2_network.node[11].content_store 	p_hit[11] 	0.027544168459482
scalar tree_4_3_u01_r2_network.node[11].content_store 	hits[11] 	845
scalar tree_4_3_u01_r2_network.node[11].content_store 	misses[11] 	29833
scalar tree_4_3_u01_r2_network.node[11].content_store 	decision_yes[11] 	29831
scalar tree_4_3_u01_r2_network.node[11].content_store 	decision_no[11] 	0
scalar tree_4_3_u01_r2_network.node[11].content_store 	decision_ratio[11] 	1
scalar tree_4_3_u01_r2_network.node[12].core_layer 	interests[12] 	30543
scalar tree_4_3_u01_r2_network.node[12].core_layer 	data[12] 	29597
scalar tree_4_3_u01_r2_network.node[12].content_store 	p_hit[12] 	0.030939986248895
scalar tree_4_3_u01_r2_network.node[12].content_store 	hits[12] 	945
scalar tree_4_3_u01_r2_network.node[12].content_store 	misses[12] 	29598
scalar tree_4_3_u01_r2_network.node[12].content_store 	decision_yes[12] 	29597
scalar tree_4_3_u01_r2_network.node[12].content_store 	decision_no[12] 	0
scalar tree_4_3_u01_r2_network.node[12].content_store 	decision_ratio[12] 	1
scalar tree_4_3_u01_r2_network.node[13].core_layer 	interests[13] 	11993
scalar tree_4_3_u01_r2_network.node[13].core_layer 	data[13] 	10127
scalar tree_4_3_u01_r2_network.node[13].content_store 	p_hit[13] 	0.15559076127741
scalar tree_4_3_u01_r2_network.node[13].content_store 	hits[13] 	1866
scalar tree_4_3_u01_r2_network.node[13].content_store 	misses[13] 	10127
scalar tree_4_3_u01_r2_network.node[13].content_store 	decision_yes[13] 	10127
scalar tree_4_3_u01_r2_network.node[13].content_store 	decision_no[13] 	0
scalar tree_4_3_u01_r2_network.node[13].content_store 	decision_ratio[13] 	1
scalar tree_4_3_u01_r2_network.node[14].core_layer 	interests[14] 	11975
scalar tree_4_3_u01_r2_network.node[14].core_layer 	data[14] 	10126
scalar tree_4_3_u01_r2_network.node[14].content_store 	p_hit[14] 	0.15432150313152
scalar tree_4_3_u01_r2_network.node[14].content_store 	hits[14] 	1848
scalar tree_4_3_u01_r2_network.node[14].content_store 	misses[14] 	10127
scalar tree_4_3_u01_r2_network.node[14].content_store 	decision_yes[14] 	10126
scalar tree_4_3_u01_r2_network.node[14].content_store 	decision_no[14] 	0
scalar tree_4_3_u01_r2_network.node[14].content_store 	decision_ratio[14] 	1
scalar tree_4_3_u01_r2_network.node[15].core_layer 	interests[15] 	12160
scalar tree_4_3_u01_r2_network.node[15].core_layer 	data[15] 	10201
scalar tree_4_3_u01_r2_network.node[15].content_store 	p_hit[15] 	0.16101973684211
scalar tree_4_3_u01_r2_network.node[15].content_store 	hits[15] 	1958
scalar tree_4_3_u01_r2_network.node[15].content_store 	misses[15] 	10202
scalar tree_4_3_u01_r2_network.node[15].content_store 	decision_yes[15] 	10201
scalar tree_4_3_u01_r2_network.node[15].content_store 	decision_no[15] 	0
scalar tree_4_3_u01_r2_network.node[15].content_store 	decision_ratio[15] 	1
scalar tree_4_3_u01_r2_network.node[16].core_layer 	interests[16] 	12038
scalar tree_4_3_u01_r2_network.node[16].core_layer 	data[16] 	10122
scalar tree_4_3_u01_r2_network.node[16].content_store 	p_hit[16] 	0.15924572188071
scalar tree_4_3_u01_r2_network.node[16].content_store 	hits[16] 	1917
scalar tree_4_3_u01_r2_network.node[16].content_store 	misses[16] 	10121
scalar tree_4_3_u01_r2_network.node[16].content_store 	decision_yes[16] 	10122
scalar tree_4_3_u01_r2_network.node[16].content_store 	decision_no[16] 	0
scalar tree_4_3_u01_r2_network.node[16].content_store 	decision_ratio[16] 	1
scalar tree_4_3_u01_r2_network.node[17].core_layer 	interests[17] 	12167
scalar tree_4_3_u01_r2_network.node[17].core_layer 	data[17] 	10234
scalar tree_4_3_u01_r2_network.node[17].content_store 	p_hit[17] 	0.15887235966138
scalar tree_4_3_u01_r2_network.node[17].content_store 	hits[17] 	1933
scalar tree_4_3_u01_r2_network.node[17].content_store 	misses[17] 	10234
scalar tree_4_3_u01_r2_network.node[17].content_store 	decision_yes[17] 	10234
scalar tree_4_3_u01_r2_network.node[17].content_store 	decision_no[17] 	0
scalar tree_4_3_u01_r2_network.node[17].content_store 	decision_ratio[17] 	1
scalar tree_4_3_u01_r2_network.node[18].core_layer 	interests[18] 	11998
scalar tree_4_3_u01_r2_network.node[18].core_layer 	data[18] 	10132
scalar tree_4_3_u01_r2_network.node[18].content_store 	p_hit[18] 	0.15544257376229
scalar tree_4_3_u01_r2_network.node[18].content_store 	hits[18] 	1865
scalar tree_4_3_u01_r2_network.node[18].content_store 	misses[18] 	10133
scalar tree_4_3_u01_r2_network.node[18].content_store 	decision_yes[18] 	10132
scalar tree_4_3_u01_r2_network.node[18].content_store 	decision_no[18] 	0
scalar tree_4_3_u01_r2_network.node[18].content_store 	decision_ratio[18] 	1
scalar tree_4_3_u01_r2_network.node[19].core_layer 	interests[19] 	11843
scalar tree_4_3_u01_r2_network.node[19].core_layer 	data[19] 	9958
scalar tree_4_3_u01_r2_network.node[19].content_store 	p_hit[19] 	0.15908131385629
scalar tree_4_3_u01_r2_network.node[19].content_store 	hits[19] 	1884
scalar tree_4_3_u01_r2_network.node[19].content_store 	misses[19] 	9959
scalar tree_4_3_u01_r2_network.node[19].content_store 	decision_yes[19] 	9958
scalar tree_4_3_u01_r2_network.node[19].content_store 	decision_no[19] 	0
scalar tree_4_3_u01_r2_network.node[19].content_store 	decision_ratio[19] 	1
scalar tree_4_3_u01_r2_network.node[20].core_layer 	interests[20] 	11981
scalar tree_4_3_u01_r2_network.node[20].core_layer 	data[20] 	10104
scalar tree_4_3_u01_r2_network.node[20].content_store 	p_hit[20] 	0.15649778816459
scalar tree_4_3_u01_r2_network.node[20].content_store 	hits[20] 	1875
scalar tree_4_3_u01_r2_network.node[20].content_store 	misses[20] 	10106
scalar tree_4_3_u01_r2_network.node[20].content_store 	decision_yes[20] 	10104
scalar tree_4_3_u01_r2_network.node[20].content_store 	decision_no[20] 	0
scalar tree_4_3_u01_r2_network.node[20].content_store 	decision_ratio[20] 	1
scalar tree_4_3_u01_r2_network.node[21].core_layer 	interests[21] 	12139
scalar tree_4_3_u01_r2_network.node[21].core_layer 	data[21] 	10145
scalar tree_4_3_u01_r2_network.node[21].content_store 	p_hit[21] 	0.16426394266414
scalar tree_4_3_u01_r2_network.node[21].content_store 	hits[21] 	1994
scalar tree_4_3_u01_r2_network.node[21].content_store 	misses[21] 	10145
scalar tree_4_3_u01_r2_network.node[21].content_store 	decision_yes[21] 	10145
scalar tree_4_3_u01_r2_network.node[21].content_store 	decision_no[21] 	0
scalar tree_4_3_u01_r2_network.node[21].content_store 	decision_ratio[21] 	1
scalar tree_4_3_u01_r2_network.node[22].core_layer 	interests[22] 	11984
scalar tree_4_3_u01_r2_network.node[22].core_layer 	data[22] 	10111
scalar tree_4_3_u01_r2_network.node[22].content_store 	p_hit[22] 	0.15612483311081
scalar tree_4_3_u01_r2_network.node[22].content_store 	hits[22] 	1871
scalar tree_4_3_u01_r2_network.node[22].content_store 	misses[22] 	10113
scalar tree_4_3_u01_r2_network.node[22].content_store 	decision_yes[22] 	10111
scalar tree_4_3_u01_r2_network.node[22].content_store 	decision_no[22] 	0
scalar tree_4_3_u01_r2_network.node[22].content_store 	decision_ratio[22] 	1
scalar tree_4_3_u01_r2_network.node[23].core_layer 	interests[23] 	11987
scalar tree_4_3_u01_r2_network.node[23].core_layer 	data[23] 	9992
scalar tree_4_3_u01_r2_network.node[23].content_store 	p_hit[23] 	0.16643029949112
scalar tree_4_3_u01_r2_network.node[23].content_store 	hits[23] 	1995
scalar tree_4_3_u01_r2_network.node[23].content_store 	misses[23] 	9992
scalar tree_4_3_u01_r2_network.node[23].content_store 	decision_yes[23] 	9992
scalar tree_4_3_u01_r2_network.node[23].content_store 	decision_no[23] 	0
scalar tree_4_3_u01_r2_network.node[23].content_store 	decision_ratio[23] 	1
scalar tree_4_3_u01_r2_network.node[24].core_layer 	interests[24] 	12259
scalar tree_4_3_u01_r2_network.node[24].core_layer 	data[24] 	10370
scalar tree_4_3_u01_r2_network.node[24].content_store 	p_hit[24] 	0.15392772656824
scalar tree_4_3_u01_r2_network.node[24].content_store 	hits[24] 	1887
scalar tree_4_3_u01_r2_network.node[24].content_store 	misses[24] 	10372
scalar tree_4_3_u01_r2_network.node[24].content_store 	decision_yes[24] 	10370
scalar tree_4_3_u01_r2_network.node[24].content_store 	decision_no[24] 	0
scalar tree_4_3_u01_r2_network.node[24].content_store 	decision_ratio[24] 	1
scalar tree_4_3_u01_r2_network.node[25].core_layer 	interests[25] 	11816
scalar tree_4_3_u01_r2_network.node[25].core_layer 	data[25] 	9939
scalar tree_4_3_u01_r2_network.node[25].content_store 	p_hit[25] 	0.15868314150305
scalar tree_4_3_u01_r2_network.node[25].content_store 	hits[25] 	1875
scalar tree_4_3_u01_r2_network.node[25].content_store 	misses[25] 	9941
scalar tree_4_3_u01_r2_network.node[25].content_store 	decision_yes[25] 	9939
scalar tree_4_3_u01_r2_network.node[25].content_store 	decision_no[25] 	0
scalar tree_4_3_u01_r2_network.node[25].content_store 	decision_ratio[25] 	1
scalar tree_4_3_u01_r2_network.node[26].core_layer 	interests[26] 	11917
scalar tree_4_3_u01_r2_network.node[26].core_layer 	data[26] 	9964
scalar tree_4_3_u01_r2_network.node[26].content_store 	p_hit[26] 	0.16371570026013
scalar tree_4_3_u01_r2_network.node[26].content_store 	hits[26] 	1951
scalar tree_4_3_u01_r2_network.node[26].content_store 	misses[26] 	9966
scalar tree_4_3_u01_r2_network.node[26].content_store 	decision_yes[26] 	9964
scalar tree_4_3_u01_r2_network.node[26].content_store 	decision_no[26] 	0
scalar tree_4_3_u01_r2_network.node[26].content_store 	decision_ratio[26] 	1
scalar tree_4_3_u01_r2_network.node[27].core_layer 	interests[27] 	11936
scalar tree_4_3_u01_r2_network.node[27].core_layer 	data[27] 	10063
scalar tree_4_3_u01_r2_network.node[27].content_store 	p_hit[27] 	0.15692024128686
scalar tree_4_3_u01_r2_network.node[27].content_store 	hits[27] 	1873
scalar tree_4_3_u01_r2_network.node[27].content_store 	misses[27] 	10063
scalar tree_4_3_u01_r2_network.node[27].content_store 	decision_yes[27] 	10063
scalar tree_4_3_u01_r2_network.node[27].content_store 	decision_no[27] 	0
scalar tree_4_3_u01_r2_network.node[27].content_store 	decision_ratio[27] 	1
scalar tree_4_3_u01_r2_network.node[28].core_layer 	interests[28] 	12000
scalar tree_4_3_u01_r2_network.node[28].core_layer 	data[28] 	10116
scalar tree_4_3_u01_r2_network.node[28].content_store 	p_hit[28] 	0.15691666666667
scalar tree_4_3_u01_r2_network.node[28].content_store 	hits[28] 	1883
scalar tree_4_3_u01_r2_network.node[28].content_store 	misses[28] 	10117
scalar tree_4_3_u01_r2_network.node[28].content_store 	decision_yes[28] 	10116
scalar tree_4_3_u01_r2_network.node[28].content_store 	decision_no[28] 	0
scalar tree_4_3_u01_r2_network.node[28].content_store 	decision_ratio[28] 	1
scalar tree_4_3_u01_r2_network.node[29].core_layer 	interests[29] 	12084
scalar tree_4_3_u01_r2_network.node[29].core_layer 	data[29] 	10185
scalar tree_4_3_u01_r2_network.node[29].content_store 	p_hit[29] 	0.15706719629262
scalar tree_4_3_u01_r2_network.node[29].content_store 	hits[29] 	1898
scalar tree_4_3_u01_r2_network.node[29].content_store 	misses[29] 	10186
scalar tree_4_3_u01_r2_network.node[29].content_store 	decision_yes[29] 	10185
scalar tree_4_3_u01_r2_network.node[29].content_store 	decision_no[29] 	0
scalar tree_4_3_u01_r2_network.node[29].content_store 	decision_ratio[29] 	1
scalar tree_4_3_u01_r2_network.node[30].core_layer 	interests[30] 	11985
scalar tree_4_3_u01_r2_network.node[30].core_layer 	data[30] 	10043
scalar tree_4_3_u01_r2_network.node[30].content_store 	p_hit[30] 	0.16195244055069
scalar tree_4_3_u01_r2_network.node[30].content_store 	hits[30] 	1941
scalar tree_4_3_u01_r2_network.node[30].content_store 	misses[30] 	10044
scalar tree_4_3_u01_r2_network.node[30].content_store 	decision_yes[30] 	10043
scalar tree_4_3_u01_r2_network.node[30].content_store 	decision_no[30] 	0
scalar tree_4_3_u01_r2_network.node[30].content_store 	decision_ratio[30] 	1
scalar tree_4_3_u01_r2_network.node[31].core_layer 	interests[31] 	12029
scalar tree_4_3_u01_r2_network.node[31].core_layer 	data[31] 	10129
scalar tree_4_3_u01_r2_network.node[31].content_store 	p_hit[31] 	0.15795161692576
scalar tree_4_3_u01_r2_network.node[31].content_store 	hits[31] 	1900
scalar tree_4_3_u01_r2_network.node[31].content_store 	misses[31] 	10129
scalar tree_4_3_u01_r2_network.node[31].content_store 	decision_yes[31] 	10129
scalar tree_4_3_u01_r2_network.node[31].content_store 	decision_no[31] 	0
scalar tree_4_3_u01_r2_network.node[31].content_store 	decision_ratio[31] 	1
scalar tree_4_3_u01_r2_network.node[32].core_layer 	interests[32] 	11846
scalar tree_4_3_u01_r2_network.node[32].core_layer 	data[32] 	9955
scalar tree_4_3_u01_r2_network.node[32].content_store 	p_hit[32] 	0.15954752659125
scalar tree_4_3_u01_r2_network.node[32].content_store 	hits[32] 	1890
scalar tree_4_3_u01_r2_network.node[32].content_store 	misses[32] 	9956
scalar tree_4_3_u01_r2_network.node[32].content_store 	decision_yes[32] 	9955
scalar tree_4_3_u01_r2_network.node[32].content_store 	decision_no[32] 	0
scalar tree_4_3_u01_r2_network.node[32].content_store 	decision_ratio[32] 	1
scalar tree_4_3_u01_r2_network.node[33].core_layer 	interests[33] 	11956
scalar tree_4_3_u01_r2_network.node[33].core_layer 	data[33] 	10134
scalar tree_4_3_u01_r2_network.node[33].content_store 	p_hit[33] 	0.15230846436935
scalar tree_4_3_u01_r2_network.node[33].content_store 	hits[33] 	1821
scalar tree_4_3_u01_r2_network.node[33].content_store 	misses[33] 	10135
scalar tree_4_3_u01_r2_network.node[33].content_store 	decision_yes[33] 	10134
scalar tree_4_3_u01_r2_network.node[33].content_store 	decision_no[33] 	0
scalar tree_4_3_u01_r2_network.node[33].content_store 	decision_ratio[33] 	1
scalar tree_4_3_u01_r2_network.node[34].core_layer 	interests[34] 	12175
scalar tree_4_3_u01_r2_network.node[34].core_layer 	data[34] 	10235
scalar tree_4_3_u01_r2_network.node[34].content_store 	p_hit[34] 	0.15934291581109
scalar tree_4_3_u01_r2_network.node[34].content_store 	hits[34] 	1940
scalar tree_4_3_u01_r2_network.node[34].content_store 	misses[34] 	10235
scalar tree_4_3_u01_r2_network.node[34].content_store 	decision_yes[34] 	10235
scalar tree_4_3_u01_r2_network.node[34].content_store 	decision_no[34] 	0
scalar tree_4_3_u01_r2_network.node[34].content_store 	decision_ratio[34] 	1
scalar tree_4_3_u01_r2_network.node[35].core_layer 	interests[35] 	12062
scalar tree_4_3_u01_r2_network.node[35].core_layer 	data[35] 	10132
scalar tree_4_3_u01_r2_network.node[35].content_store 	p_hit[35] 	0.15992372740839
scalar tree_4_3_u01_r2_network.node[35].content_store 	hits[35] 	1929
scalar tree_4_3_u01_r2_network.node[35].content_store 	misses[35] 	10133
scalar tree_4_3_u01_r2_network.node[35].content_store 	decision_yes[35] 	10132
scalar tree_4_3_u01_r2_network.node[35].content_store 	decision_no[35] 	0
scalar tree_4_3_u01_r2_network.node[35].content_store 	decision_ratio[35] 	1
scalar tree_4_3_u01_r2_network.node[36].core_layer 	interests[36] 	12133
scalar tree_4_3_u01_r2_network.node[36].core_layer 	data[36] 	10311
scalar tree_4_3_u01_r2_network.node[36].content_store 	p_hit[36] 	0.15016896068573
scalar tree_4_3_u01_r2_network.node[36].content_store 	hits[36] 	1822
scalar tree_4_3_u01_r2_network.node[36].content_store 	misses[36] 	10311
scalar tree_4_3_u01_r2_network.node[36].content_store 	decision_yes[36] 	10311
scalar tree_4_3_u01_r2_network.node[36].content_store 	decision_no[36] 	0
scalar tree_4_3_u01_r2_network.node[36].content_store 	decision_ratio[36] 	1
scalar tree_4_3_u01_r2_network.node[37].core_layer 	interests[37] 	12085
scalar tree_4_3_u01_r2_network.node[37].core_layer 	data[37] 	10269
scalar tree_4_3_u01_r2_network.node[37].content_store 	p_hit[37] 	0.15018618121638
scalar tree_4_3_u01_r2_network.node[37].content_store 	hits[37] 	1815
scalar tree_4_3_u01_r2_network.node[37].content_store 	misses[37] 	10270
scalar tree_4_3_u01_r2_network.node[37].content_store 	decision_yes[37] 	10269
scalar tree_4_3_u01_r2_network.node[37].content_store 	decision_no[37] 	0
scalar tree_4_3_u01_r2_network.node[37].content_store 	decision_ratio[37] 	1
scalar tree_4_3_u01_r2_network.node[38].core_layer 	interests[38] 	11916
scalar tree_4_3_u01_r2_network.node[38].core_layer 	data[38] 	10140
scalar tree_4_3_u01_r2_network.node[38].content_store 	p_hit[38] 	0.14895938234307
scalar tree_4_3_u01_r2_network.node[38].content_store 	hits[38] 	1775
scalar tree_4_3_u01_r2_network.node[38].content_store 	misses[38] 	10141
scalar tree_4_3_u01_r2_network.node[38].content_store 	decision_yes[38] 	10140
scalar tree_4_3_u01_r2_network.node[38].content_store 	decision_no[38] 	0
scalar tree_4_3_u01_r2_network.node[38].content_store 	decision_ratio[38] 	1
scalar tree_4_3_u01_r2_network.node[39].core_layer 	interests[39] 	12056
scalar tree_4_3_u01_r2_network.node[39].core_layer 	data[39] 	10134
scalar tree_4_3_u01_r2_network.node[39].content_store 	p_hit[39] 	0.15942269409423
scalar tree_4_3_u01_r2_network.node[39].content_store 	hits[39] 	1922
scalar tree_4_3_u01_r2_network.node[39].content_store 	misses[39] 	10134
scalar tree_4_3_u01_r2_network.node[39].content_store 	decision_yes[39] 	10134
scalar tree_4_3_u01_r2_network.node[39].content_store 	decision_no[39] 	0
scalar tree_4_3_u01_r2_network.node[39].content_store 	decision_ratio[39] 	1
scalar tree_4_3_u01_r2_network.client[13] 	hdistance[13] 	3.2423080130076
scalar tree_4_3_u01_r2_network.client[13] 	downloads[13] 	11993
scalar tree_4_3_u01_r2_network.client[13] 	avg_time[13] 	0.004916422239
scalar tree_4_3_u01_r2_network.client[14] 	hdistance[14] 	3.2493736428929
scalar tree_4_3_u01_r2_network.client[14] 	downloads[14] 	11974
scalar tree_4_3_u01_r2_network.client[14] 	avg_time[14] 	0.004924556268
scalar tree_4_3_u01_r2_network.client[15] 	hdistance[15] 	3.2298708775393
scalar tree_4_3_u01_r2_network.client[15] 	downloads[15] 	12159
scalar tree_4_3_u01_r2_network.client[15] 	avg_time[15] 	0.004891444056
scalar tree_4_3_u01_r2_network.client[16] 	hdistance[16] 	3.2356508015616
scalar tree_4_3_u01_r2_network.client[16] 	downloads[16] 	12039
scalar tree_4_3_u01_r2_network.client[16] 	avg_time[16] 	0.004901416996
scalar tree_4_3_u01_r2_network.client[17] 	hdistance[17] 	3.2478836196269
scalar tree_4_3_u01_r2_network.client[17] 	downloads[17] 	12167
scalar tree_4_3_u01_r2_network.client[17] 	avg_time[17] 	0.004923945336
scalar tree_4_3_u01_r2_network.client[18] 	hdistance[18] 	3.2596482453947
scalar tree_4_3_u01_r2_network.client[18] 	downloads[18] 	11997
scalar tree_4_3_u01_r2_network.client[18] 	avg_time[18] 	0.004943869779
scalar tree_4_3_u01_r2_network.client[19] 	hdistance[19] 	3.242019929066
scalar tree_4_3_u01_r2_network.client[19] 	downloads[19] 	11842
scalar tree_4_3_u01_r2_network.client[19] 	avg_time[19] 	0.004913863028
scalar tree_4_3_u01_r2_network.client[20] 	hdistance[20] 	3.2429251189582
scalar tree_4_3_u01_r2_network.client[20] 	downloads[20] 	11979
scalar tree_4_3_u01_r2_network.client[20] 	avg_time[20] 	0.004915730598
scalar tree_4_3_u01_r2_network.client[21] 	hdistance[21] 	3.2170689513139
scalar tree_4_3_u01_r2_network.client[21] 	downloads[21] 	12139
scalar tree_4_3_u01_r2_network.client[21] 	avg_time[21] 	0.00487462017
scalar tree_4_3_u01_r2_network.client[22] 	hdistance[22] 	3.2537973627107
scalar tree_4_3_u01_r2_network.client[22] 	downloads[22] 	11982
scalar tree_4_3_u01_r2_network.client[22] 	avg_time[22] 	0.004933166768
scalar tree_4_3_u01_r2_network.client[23] 	hdistance[23] 	3.2068907983649
scalar tree_4_3_u01_r2_network.client[23] 	downloads[23] 	11987
scalar tree_4_3_u01_r2_network.client[23] 	avg_time[23] 	0.004862452885
scalar tree_4_3_u01_r2_network.client[24] 	hdistance[24] 	3.2676021865057
scalar tree_4_3_u01_r2_network.client[24] 	downloads[24] 	12257
scalar tree_4_3_u01_r2_network.client[24] 	avg_time[24] 	0.004951575708
scalar tree_4_3_u01_r2_network.client[25] 	hdistance[25] 	3.2370915862536
scalar tree_4_3_u01_r2_network.client[25] 	downloads[25] 	11814
scalar tree_4_3_u01_r2_network.client[25] 	avg_time[25] 	0.004908310129
scalar tree_4_3_u01_r2_network.client[26] 	hdistance[26] 	3.2239194292908
scalar tree_4_3_u01_r2_network.client[26] 	downloads[26] 	11915
scalar tree_4_3_u01_r2_network.client[26] 	avg_time[26] 	0.004888030913
scalar tree_4_3_u01_r2_network.client[27] 	hdistance[27] 	3.245894772118
scalar tree_4_3_u01_r2_network.client[27] 	downloads[27] 	11936
scalar tree_4_3_u01_r2_network.client[27] 	avg_time[27] 	0.004921243685
scalar tree_4_3_u01_r2_network.client[28] 	hdistance[28] 	3.2386865572131
scalar tree_4_3_u01_r2_network.client[28] 	downloads[28] 	11999
scalar tree_4_3_u01_r2_network.client[28] 	avg_time[28] 	0.004912498706
scalar tree_4_3_u01_r2_network.client[29] 	hdistance[29] 	3.2604485640983
scalar tree_4_3_u01_r2_network.client[29] 	downloads[29] 	12083
scalar tree_4_3_u01_r2_network.client[29] 	avg_time[29] 	0.004944505881
scalar tree_4_3_u01_r2_network.client[30] 	hdistance[30] 	3.2330607476636
scalar tree_4_3_u01_r2_network.client[30] 	downloads[30] 	11984
scalar tree_4_3_u01_r2_network.client[30] 	avg_time[30] 	0.004904557798
scalar tree_4_3_u01_r2_network.client[31] 	hdistance[31] 	3.2520575276415
scalar tree_4_3_u01_r2_network.client[31] 	downloads[31] 	12029
scalar tree_4_3_u01_r2_network.client[31] 	avg_time[31] 	0.004925276316
scalar tree_4_3_u01_r2_network.client[32] 	hdistance[32] 	3.2361333896159
scalar tree_4_3_u01_r2_network.client[32] 	downloads[32] 	11845
scalar tree_4_3_u01_r2_network.client[32] 	avg_time[32] 	0.004904702273
scalar tree_4_3_u01_r2_network.client[33] 	hdistance[33] 	3.2670012547051
scalar tree_4_3_u01_r2_network.client[33] 	downloads[33] 	11955
scalar tree_4_3_u01_r2_network.client[33] 	avg_time[33] 	0.004948924903
scalar tree_4_3_u01_r2_network.client[34] 	hdistance[34] 	3.2445995893224
scalar tree_4_3_u01_r2_network.client[34] 	downloads[34] 	12175
scalar tree_4_3_u01_r2_network.client[34] 	avg_time[34] 	0.00491964945
scalar tree_4_3_u01_r2_network.client[35] 	hdistance[35] 	3.2466627974463
scalar tree_4_3_u01_r2_network.client[35] 	downloads[35] 	12061
scalar tree_4_3_u01_r2_network.client[35] 	avg_time[35] 	0.004918434129
scalar tree_4_3_u01_r2_network.client[36] 	hdistance[36] 	3.2887167229869
scalar tree_4_3_u01_r2_network.client[36] 	downloads[36] 	12133
scalar tree_4_3_u01_r2_network.client[36] 	avg_time[36] 	0.004982936065
scalar tree_4_3_u01_r2_network.client[37] 	hdistance[37] 	3.271019529957
scalar tree_4_3_u01_r2_network.client[37] 	downloads[37] 	12084
scalar tree_4_3_u01_r2_network.client[37] 	avg_time[37] 	0.004963388874
scalar tree_4_3_u01_r2_network.client[38] 	hdistance[38] 	3.2848510281158
scalar tree_4_3_u01_r2_network.client[38] 	downloads[38] 	11915
scalar tree_4_3_u01_r2_network.client[38] 	avg_time[38] 	0.004981480487
scalar tree_4_3_u01_r2_network.client[39] 	hdistance[39] 	3.2311712010617
scalar tree_4_3_u01_r2_network.client[39] 	downloads[39] 	12056
scalar tree_4_3_u01_r2_network.client[39] 	avg_time[39] 	0.004903115767
