version 2
run General-33-20160820-14:14:17-2644
attr a 0.9
attr cd lce
attr configname General
attr cr lru
attr datetime 20160820-14:14:17
attr experiment General
attr fsize 1
attr inifile hw5115/scenario_A/SPR-LCE.ini
attr iterationvars "$name=tree_4_3, $un=01, $rep=14, $cd=lce, $cr=lru, $fsize=1, $a=0.9, $sl=spr, $ttl=1000, $variance=0.05"
attr iterationvars2 "$name=tree_4_3, $un=01, $rep=14, $cd=lce, $cr=lru, $fsize=1, $a=0.9, $sl=spr, $ttl=1000, $variance=0.05, $repetition=0"
attr measurement "$name=tree_4_3, $un=01, $rep=14, $cd=lce, $cr=lru, $fsize=1, $a=0.9, $sl=spr, $ttl=1000, $variance=0.05"
attr name tree_4_3
attr network networks.${name}_u${un}_r${rep}_network
attr processid 2644
attr rep 14
attr repetition 0
attr replication #0
attr resultdir results
attr runnumber 33
attr seedset 14
attr sl spr
attr ttl 1000
attr un 01
attr variance 0.05

scalar . 	a 	0.9
scalar . 	fsize 	1
scalar . 	rep 	14
scalar . 	ttl 	1000
scalar . 	un 	01
scalar . 	variance 	0.05
scalar tree_4_3_u01_r14_network.content_distribution 	repo-0 	0
scalar tree_4_3_u01_r14_network.content_distribution 	client-0 	13
scalar tree_4_3_u01_r14_network.content_distribution 	client-1 	14
scalar tree_4_3_u01_r14_network.content_distribution 	client-2 	15
scalar tree_4_3_u01_r14_network.content_distribution 	client-3 	16
scalar tree_4_3_u01_r14_network.content_distribution 	client-4 	17
scalar tree_4_3_u01_r14_network.content_distribution 	client-5 	18
scalar tree_4_3_u01_r14_network.content_distribution 	client-6 	19
scalar tree_4_3_u01_r14_network.content_distribution 	client-7 	20
scalar tree_4_3_u01_r14_network.content_distribution 	client-8 	21
scalar tree_4_3_u01_r14_network.content_distribution 	client-9 	22
scalar tree_4_3_u01_r14_network.content_distribution 	client-10 	23
scalar tree_4_3_u01_r14_network.content_distribution 	client-11 	24
scalar tree_4_3_u01_r14_network.content_distribution 	client-12 	25
scalar tree_4_3_u01_r14_network.content_distribution 	client-13 	26
scalar tree_4_3_u01_r14_network.content_distribution 	client-14 	27
scalar tree_4_3_u01_r14_network.content_distribution 	client-15 	28
scalar tree_4_3_u01_r14_network.content_distribution 	client-16 	29
scalar tree_4_3_u01_r14_network.content_distribution 	client-17 	30
scalar tree_4_3_u01_r14_network.content_distribution 	client-18 	31
scalar tree_4_3_u01_r14_network.content_distribution 	client-19 	32
scalar tree_4_3_u01_r14_network.content_distribution 	client-20 	33
scalar tree_4_3_u01_r14_network.content_distribution 	client-21 	34
scalar tree_4_3_u01_r14_network.content_distribution 	client-22 	35
scalar tree_4_3_u01_r14_network.content_distribution 	client-23 	36
scalar tree_4_3_u01_r14_network.content_distribution 	client-24 	37
scalar tree_4_3_u01_r14_network.content_distribution 	client-25 	38
scalar tree_4_3_u01_r14_network.content_distribution 	client-26 	39
scalar tree_4_3_u01_r14_network.content_distribution 	repo-0_card 	100000
scalar tree_4_3_u01_r14_network.content_distribution 	repo-0_price 	0
scalar tree_4_3_u01_r14_network.statistics 	stabilization_time 	565.9
scalar tree_4_3_u01_r14_network.statistics 	p_hit 	0.11350565089804
scalar tree_4_3_u01_r14_network.statistics 	interests 	28079.725
scalar tree_4_3_u01_r14_network.statistics 	data 	19979.275
scalar tree_4_3_u01_r14_network.statistics 	hdistance 	3.2535380984655
scalar tree_4_3_u01_r14_network.statistics 	avg_time 	0.004933191104
scalar tree_4_3_u01_r14_network.statistics 	downloads 	324003
scalar tree_4_3_u01_r14_network.statistics 	total_cost 	0
scalar tree_4_3_u01_r14_network.statistics 	total_replicas 	100000
scalar tree_4_3_u01_r14_network.statistics 	inner_hit 	0.21329432134888
scalar tree_4_3_u01_r14_network.node[0].core_layer 	interests[0] 	259865
scalar tree_4_3_u01_r14_network.node[0].core_layer 	repo_load[0] 	254895
scalar tree_4_3_u01_r14_network.node[0].core_layer 	data[0] 	0
scalar tree_4_3_u01_r14_network.node[0].core_layer 	repo_int[0] 	254895
scalar tree_4_3_u01_r14_network.node[0].content_store 	p_hit[0] 	0.019125315067439
scalar tree_4_3_u01_r14_network.node[0].content_store 	hits[0] 	4970
scalar tree_4_3_u01_r14_network.node[0].content_store 	misses[0] 	254895
scalar tree_4_3_u01_r14_network.node[0].content_store 	decision_yes[0] 	254895
scalar tree_4_3_u01_r14_network.node[0].content_store 	decision_no[0] 	0
scalar tree_4_3_u01_r14_network.node[0].content_store 	decision_ratio[0] 	1
scalar tree_4_3_u01_r14_network.node[1].core_layer 	interests[1] 	88600
scalar tree_4_3_u01_r14_network.node[1].core_layer 	data[1] 	86597
scalar tree_4_3_u01_r14_network.node[1].content_store 	p_hit[1] 	0.02255079006772
scalar tree_4_3_u01_r14_network.node[1].content_store 	hits[1] 	1998
scalar tree_4_3_u01_r14_network.node[1].content_store 	misses[1] 	86602
scalar tree_4_3_u01_r14_network.node[1].content_store 	decision_yes[1] 	86597
scalar tree_4_3_u01_r14_network.node[1].content_store 	decision_no[1] 	0
scalar tree_4_3_u01_r14_network.node[1].content_store 	decision_ratio[1] 	1
scalar tree_4_3_u01_r14_network.node[2].core_layer 	interests[2] 	88782
scalar tree_4_3_u01_r14_network.node[2].core_layer 	data[2] 	86781
scalar tree_4_3_u01_r14_network.node[2].content_store 	p_hit[2] 	0.02241445338019
scalar tree_4_3_u01_r14_network.node[2].content_store 	hits[2] 	1990
scalar tree_4_3_u01_r14_network.node[2].content_store 	misses[2] 	86792
scalar tree_4_3_u01_r14_network.node[2].content_store 	decision_yes[2] 	86781
scalar tree_4_3_u01_r14_network.node[2].content_store 	decision_no[2] 	0
scalar tree_4_3_u01_r14_network.node[2].content_store 	decision_ratio[2] 	1
scalar tree_4_3_u01_r14_network.node[3].core_layer 	interests[3] 	88406
scalar tree_4_3_u01_r14_network.node[3].core_layer 	data[3] 	86487
scalar tree_4_3_u01_r14_network.node[3].content_store 	p_hit[3] 	0.02163880279619
scalar tree_4_3_u01_r14_network.node[3].content_store 	hits[3] 	1913
scalar tree_4_3_u01_r14_network.node[3].content_store 	misses[3] 	86493
scalar tree_4_3_u01_r14_network.node[3].content_store 	decision_yes[3] 	86487
scalar tree_4_3_u01_r14_network.node[3].content_store 	decision_no[3] 	0
scalar tree_4_3_u01_r14_network.node[3].content_store 	decision_ratio[3] 	1
scalar tree_4_3_u01_r14_network.node[4].core_layer 	interests[4] 	40284
scalar tree_4_3_u01_r14_network.node[4].core_layer 	data[4] 	39026
scalar tree_4_3_u01_r14_network.node[4].content_store 	p_hit[4] 	0.03120345546619
scalar tree_4_3_u01_r14_network.node[4].content_store 	hits[4] 	1257
scalar tree_4_3_u01_r14_network.node[4].content_store 	misses[4] 	39027
scalar tree_4_3_u01_r14_network.node[4].content_store 	decision_yes[4] 	39026
scalar tree_4_3_u01_r14_network.node[4].content_store 	decision_no[4] 	0
scalar tree_4_3_u01_r14_network.node[4].content_store 	decision_ratio[4] 	1
scalar tree_4_3_u01_r14_network.node[5].core_layer 	interests[5] 	30568
scalar tree_4_3_u01_r14_network.node[5].core_layer 	data[5] 	29722
scalar tree_4_3_u01_r14_network.node[5].content_store 	p_hit[5] 	0.027577859199163
scalar tree_4_3_u01_r14_network.node[5].content_store 	hits[5] 	843
scalar tree_4_3_u01_r14_network.node[5].content_store 	misses[5] 	29725
scalar tree_4_3_u01_r14_network.node[5].content_store 	decision_yes[5] 	29722
scalar tree_4_3_u01_r14_network.node[5].content_store 	decision_no[5] 	0
scalar tree_4_3_u01_r14_network.node[5].content_store 	decision_ratio[5] 	1
scalar tree_4_3_u01_r14_network.node[6].core_layer 	interests[6] 	20292
scalar tree_4_3_u01_r14_network.node[6].core_layer 	data[6] 	19852
scalar tree_4_3_u01_r14_network.node[6].content_store 	p_hit[6] 	0.021683422038242
scalar tree_4_3_u01_r14_network.node[6].content_store 	hits[6] 	440
scalar tree_4_3_u01_r14_network.node[6].content_store 	misses[6] 	19852
scalar tree_4_3_u01_r14_network.node[6].content_store 	decision_yes[6] 	19852
scalar tree_4_3_u01_r14_network.node[6].content_store 	decision_no[6] 	0
scalar tree_4_3_u01_r14_network.node[6].content_store 	decision_ratio[6] 	1
scalar tree_4_3_u01_r14_network.node[7].core_layer 	interests[7] 	30438
scalar tree_4_3_u01_r14_network.node[7].core_layer 	data[7] 	29549
scalar tree_4_3_u01_r14_network.node[7].content_store 	p_hit[7] 	0.029141205072607
scalar tree_4_3_u01_r14_network.node[7].content_store 	hits[7] 	887
scalar tree_4_3_u01_r14_network.node[7].content_store 	misses[7] 	29551
scalar tree_4_3_u01_r14_network.node[7].content_store 	decision_yes[7] 	29549
scalar tree_4_3_u01_r14_network.node[7].content_store 	decision_no[7] 	0
scalar tree_4_3_u01_r14_network.node[7].content_store 	decision_ratio[7] 	1
scalar tree_4_3_u01_r14_network.node[8].core_layer 	interests[8] 	40673
scalar tree_4_3_u01_r14_network.node[8].core_layer 	data[8] 	39419
scalar tree_4_3_u01_r14_network.node[8].content_store 	p_hit[8] 	0.030708332308903
scalar tree_4_3_u01_r14_network.node[8].content_store 	hits[8] 	1249
scalar tree_4_3_u01_r14_network.node[8].content_store 	misses[8] 	39424
scalar tree_4_3_u01_r14_network.node[8].content_store 	decision_yes[8] 	39419
scalar tree_4_3_u01_r14_network.node[8].content_store 	decision_no[8] 	0
scalar tree_4_3_u01_r14_network.node[8].content_store 	decision_ratio[8] 	1
scalar tree_4_3_u01_r14_network.node[9].core_layer 	interests[9] 	20267
scalar tree_4_3_u01_r14_network.node[9].core_layer 	data[9] 	19814
scalar tree_4_3_u01_r14_network.node[9].content_store 	p_hit[9] 	0.022351606059111
scalar tree_4_3_u01_r14_network.node[9].content_store 	hits[9] 	453
scalar tree_4_3_u01_r14_network.node[9].content_store 	misses[9] 	19814
scalar tree_4_3_u01_r14_network.node[9].content_store 	decision_yes[9] 	19814
scalar tree_4_3_u01_r14_network.node[9].content_store 	decision_no[9] 	0
scalar tree_4_3_u01_r14_network.node[9].content_store 	decision_ratio[9] 	1
scalar tree_4_3_u01_r14_network.node[10].core_layer 	interests[10] 	30258
scalar tree_4_3_u01_r14_network.node[10].core_layer 	data[10] 	29372
scalar tree_4_3_u01_r14_network.node[10].content_store 	p_hit[10] 	0.029215414105361
scalar tree_4_3_u01_r14_network.node[10].content_store 	hits[10] 	884
scalar tree_4_3_u01_r14_network.node[10].content_store 	misses[10] 	29374
scalar tree_4_3_u01_r14_network.node[10].content_store 	decision_yes[10] 	29372
scalar tree_4_3_u01_r14_network.node[10].content_store 	decision_no[10] 	0
scalar tree_4_3_u01_r14_network.node[10].content_store 	decision_ratio[10] 	1
scalar tree_4_3_u01_r14_network.node[11].core_layer 	interests[11] 	30560
scalar tree_4_3_u01_r14_network.node[11].core_layer 	data[11] 	29657
scalar tree_4_3_u01_r14_network.node[11].content_store 	p_hit[11] 	0.029548429319372
scalar tree_4_3_u01_r14_network.node[11].content_store 	hits[11] 	903
scalar tree_4_3_u01_r14_network.node[11].content_store 	misses[11] 	29657
scalar tree_4_3_u01_r14_network.node[11].content_store 	decision_yes[11] 	29657
scalar tree_4_3_u01_r14_network.node[11].content_store 	decision_no[11] 	0
scalar tree_4_3_u01_r14_network.node[11].content_store 	decision_ratio[11] 	1
scalar tree_4_3_u01_r14_network.node[12].core_layer 	interests[12] 	30178
scalar tree_4_3_u01_r14_network.node[12].core_layer 	data[12] 	29377
scalar tree_4_3_u01_r14_network.node[12].content_store 	p_hit[12] 	0.026542514414474
scalar tree_4_3_u01_r14_network.node[12].content_store 	hits[12] 	801
scalar tree_4_3_u01_r14_network.node[12].content_store 	misses[12] 	29377
scalar tree_4_3_u01_r14_network.node[12].content_store 	decision_yes[12] 	29377
scalar tree_4_3_u01_r14_network.node[12].content_store 	decision_no[12] 	0
scalar tree_4_3_u01_r14_network.node[12].content_store 	decision_ratio[12] 	1
scalar tree_4_3_u01_r14_network.node[13].core_layer 	interests[13] 	11839
scalar tree_4_3_u01_r14_network.node[13].core_layer 	data[13] 	9994
scalar tree_4_3_u01_r14_network.node[13].content_store 	p_hit[13] 	0.15592533153138
scalar tree_4_3_u01_r14_network.node[13].content_store 	hits[13] 	1846
scalar tree_4_3_u01_r14_network.node[13].content_store 	misses[13] 	9993
scalar tree_4_3_u01_r14_network.node[13].content_store 	decision_yes[13] 	9994
scalar tree_4_3_u01_r14_network.node[13].content_store 	decision_no[13] 	0
scalar tree_4_3_u01_r14_network.node[13].content_store 	decision_ratio[13] 	1
scalar tree_4_3_u01_r14_network.node[14].core_layer 	interests[14] 	11825
scalar tree_4_3_u01_r14_network.node[14].core_layer 	data[14] 	10004
scalar tree_4_3_u01_r14_network.node[14].content_store 	p_hit[14] 	0.153911205074
scalar tree_4_3_u01_r14_network.node[14].content_store 	hits[14] 	1820
scalar tree_4_3_u01_r14_network.node[14].content_store 	misses[14] 	10005
scalar tree_4_3_u01_r14_network.node[14].content_store 	decision_yes[14] 	10004
scalar tree_4_3_u01_r14_network.node[14].content_store 	decision_no[14] 	0
scalar tree_4_3_u01_r14_network.node[14].content_store 	decision_ratio[14] 	1
scalar tree_4_3_u01_r14_network.node[15].core_layer 	interests[15] 	12011
scalar tree_4_3_u01_r14_network.node[15].core_layer 	data[15] 	10037
scalar tree_4_3_u01_r14_network.node[15].content_store 	p_hit[15] 	0.16434934643244
scalar tree_4_3_u01_r14_network.node[15].content_store 	hits[15] 	1974
scalar tree_4_3_u01_r14_network.node[15].content_store 	misses[15] 	10037
scalar tree_4_3_u01_r14_network.node[15].content_store 	decision_yes[15] 	10037
scalar tree_4_3_u01_r14_network.node[15].content_store 	decision_no[15] 	0
scalar tree_4_3_u01_r14_network.node[15].content_store 	decision_ratio[15] 	1
scalar tree_4_3_u01_r14_network.node[16].core_layer 	interests[16] 	12029
scalar tree_4_3_u01_r14_network.node[16].core_layer 	data[16] 	10245
scalar tree_4_3_u01_r14_network.node[16].content_store 	p_hit[16] 	0.1483082550503
scalar tree_4_3_u01_r14_network.node[16].content_store 	hits[16] 	1784
scalar tree_4_3_u01_r14_network.node[16].content_store 	misses[16] 	10245
scalar tree_4_3_u01_r14_network.node[16].content_store 	decision_yes[16] 	10245
scalar tree_4_3_u01_r14_network.node[16].content_store 	decision_no[16] 	0
scalar tree_4_3_u01_r14_network.node[16].content_store 	decision_ratio[16] 	1
scalar tree_4_3_u01_r14_network.node[17].core_layer 	interests[17] 	11841
scalar tree_4_3_u01_r14_network.node[17].core_layer 	data[17] 	10040
scalar tree_4_3_u01_r14_network.node[17].content_store 	p_hit[17] 	0.15176083101089
scalar tree_4_3_u01_r14_network.node[17].content_store 	hits[17] 	1797
scalar tree_4_3_u01_r14_network.node[17].content_store 	misses[17] 	10044
scalar tree_4_3_u01_r14_network.node[17].content_store 	decision_yes[17] 	10040
scalar tree_4_3_u01_r14_network.node[17].content_store 	decision_no[17] 	0
scalar tree_4_3_u01_r14_network.node[17].content_store 	decision_ratio[17] 	1
scalar tree_4_3_u01_r14_network.node[18].core_layer 	interests[18] 	12106
scalar tree_4_3_u01_r14_network.node[18].core_layer 	data[18] 	10282
scalar tree_4_3_u01_r14_network.node[18].content_store 	p_hit[18] 	0.15058648603998
scalar tree_4_3_u01_r14_network.node[18].content_store 	hits[18] 	1823
scalar tree_4_3_u01_r14_network.node[18].content_store 	misses[18] 	10283
scalar tree_4_3_u01_r14_network.node[18].content_store 	decision_yes[18] 	10282
scalar tree_4_3_u01_r14_network.node[18].content_store 	decision_no[18] 	0
scalar tree_4_3_u01_r14_network.node[18].content_store 	decision_ratio[18] 	1
scalar tree_4_3_u01_r14_network.node[19].core_layer 	interests[19] 	12155
scalar tree_4_3_u01_r14_network.node[19].core_layer 	data[19] 	10250
scalar tree_4_3_u01_r14_network.node[19].content_store 	p_hit[19] 	0.15672562731386
scalar tree_4_3_u01_r14_network.node[19].content_store 	hits[19] 	1905
scalar tree_4_3_u01_r14_network.node[19].content_store 	misses[19] 	10250
scalar tree_4_3_u01_r14_network.node[19].content_store 	decision_yes[19] 	10250
scalar tree_4_3_u01_r14_network.node[19].content_store 	decision_no[19] 	0
scalar tree_4_3_u01_r14_network.node[19].content_store 	decision_ratio[19] 	1
scalar tree_4_3_u01_r14_network.node[20].core_layer 	interests[20] 	12114
scalar tree_4_3_u01_r14_network.node[20].core_layer 	data[20] 	10166
scalar tree_4_3_u01_r14_network.node[20].content_store 	p_hit[20] 	0.16080567937923
scalar tree_4_3_u01_r14_network.node[20].content_store 	hits[20] 	1948
scalar tree_4_3_u01_r14_network.node[20].content_store 	misses[20] 	10166
scalar tree_4_3_u01_r14_network.node[20].content_store 	decision_yes[20] 	10166
scalar tree_4_3_u01_r14_network.node[20].content_store 	decision_no[20] 	0
scalar tree_4_3_u01_r14_network.node[20].content_store 	decision_ratio[20] 	1
scalar tree_4_3_u01_r14_network.node[21].core_layer 	interests[21] 	12027
scalar tree_4_3_u01_r14_network.node[21].core_layer 	data[21] 	10126
scalar tree_4_3_u01_r14_network.node[21].content_store 	p_hit[21] 	0.15797788309637
scalar tree_4_3_u01_r14_network.node[21].content_store 	hits[21] 	1900
scalar tree_4_3_u01_r14_network.node[21].content_store 	misses[21] 	10127
scalar tree_4_3_u01_r14_network.node[21].content_store 	decision_yes[21] 	10126
scalar tree_4_3_u01_r14_network.node[21].content_store 	decision_no[21] 	0
scalar tree_4_3_u01_r14_network.node[21].content_store 	decision_ratio[21] 	1
scalar tree_4_3_u01_r14_network.node[22].core_layer 	interests[22] 	11986
scalar tree_4_3_u01_r14_network.node[22].core_layer 	data[22] 	10134
scalar tree_4_3_u01_r14_network.node[22].content_store 	p_hit[22] 	0.15443016852995
scalar tree_4_3_u01_r14_network.node[22].content_store 	hits[22] 	1851
scalar tree_4_3_u01_r14_network.node[22].content_store 	misses[22] 	10135
scalar tree_4_3_u01_r14_network.node[22].content_store 	decision_yes[22] 	10134
scalar tree_4_3_u01_r14_network.node[22].content_store 	decision_no[22] 	0
scalar tree_4_3_u01_r14_network.node[22].content_store 	decision_ratio[22] 	1
scalar tree_4_3_u01_r14_network.node[23].core_layer 	interests[23] 	11940
scalar tree_4_3_u01_r14_network.node[23].core_layer 	data[23] 	10106
scalar tree_4_3_u01_r14_network.node[23].content_store 	p_hit[23] 	0.1536013400335
scalar tree_4_3_u01_r14_network.node[23].content_store 	hits[23] 	1834
scalar tree_4_3_u01_r14_network.node[23].content_store 	misses[23] 	10106
scalar tree_4_3_u01_r14_network.node[23].content_store 	decision_yes[23] 	10106
scalar tree_4_3_u01_r14_network.node[23].content_store 	decision_no[23] 	0
scalar tree_4_3_u01_r14_network.node[23].content_store 	decision_ratio[23] 	1
scalar tree_4_3_u01_r14_network.node[24].core_layer 	interests[24] 	12078
scalar tree_4_3_u01_r14_network.node[24].core_layer 	data[24] 	10198
scalar tree_4_3_u01_r14_network.node[24].content_store 	p_hit[24] 	0.15565490975327
scalar tree_4_3_u01_r14_network.node[24].content_store 	hits[24] 	1880
scalar tree_4_3_u01_r14_network.node[24].content_store 	misses[24] 	10198
scalar tree_4_3_u01_r14_network.node[24].content_store 	decision_yes[24] 	10198
scalar tree_4_3_u01_r14_network.node[24].content_store 	decision_no[24] 	0
scalar tree_4_3_u01_r14_network.node[24].content_store 	decision_ratio[24] 	1
scalar tree_4_3_u01_r14_network.node[25].core_layer 	interests[25] 	12201
scalar tree_4_3_u01_r14_network.node[25].core_layer 	data[25] 	10296
scalar tree_4_3_u01_r14_network.node[25].content_store 	p_hit[25] 	0.15597082206377
scalar tree_4_3_u01_r14_network.node[25].content_store 	hits[25] 	1903
scalar tree_4_3_u01_r14_network.node[25].content_store 	misses[25] 	10298
scalar tree_4_3_u01_r14_network.node[25].content_store 	decision_yes[25] 	10296
scalar tree_4_3_u01_r14_network.node[25].content_store 	decision_no[25] 	0
scalar tree_4_3_u01_r14_network.node[25].content_store 	decision_ratio[25] 	1
scalar tree_4_3_u01_r14_network.node[26].core_layer 	interests[26] 	12001
scalar tree_4_3_u01_r14_network.node[26].core_layer 	data[26] 	10189
scalar tree_4_3_u01_r14_network.node[26].content_store 	p_hit[26] 	0.15098741771519
scalar tree_4_3_u01_r14_network.node[26].content_store 	hits[26] 	1812
scalar tree_4_3_u01_r14_network.node[26].content_store 	misses[26] 	10189
scalar tree_4_3_u01_r14_network.node[26].content_store 	decision_yes[26] 	10189
scalar tree_4_3_u01_r14_network.node[26].content_store 	decision_no[26] 	0
scalar tree_4_3_u01_r14_network.node[26].content_store 	decision_ratio[26] 	1
scalar tree_4_3_u01_r14_network.node[27].core_layer 	interests[27] 	12086
scalar tree_4_3_u01_r14_network.node[27].core_layer 	data[27] 	10061
scalar tree_4_3_u01_r14_network.node[27].content_store 	p_hit[27] 	0.16754923051465
scalar tree_4_3_u01_r14_network.node[27].content_store 	hits[27] 	2025
scalar tree_4_3_u01_r14_network.node[27].content_store 	misses[27] 	10061
scalar tree_4_3_u01_r14_network.node[27].content_store 	decision_yes[27] 	10061
scalar tree_4_3_u01_r14_network.node[27].content_store 	decision_no[27] 	0
scalar tree_4_3_u01_r14_network.node[27].content_store 	decision_ratio[27] 	1
scalar tree_4_3_u01_r14_network.node[28].core_layer 	interests[28] 	11992
scalar tree_4_3_u01_r14_network.node[28].core_layer 	data[28] 	10158
scalar tree_4_3_u01_r14_network.node[28].content_store 	p_hit[28] 	0.15293529019346
scalar tree_4_3_u01_r14_network.node[28].content_store 	hits[28] 	1834
scalar tree_4_3_u01_r14_network.node[28].content_store 	misses[28] 	10158
scalar tree_4_3_u01_r14_network.node[28].content_store 	decision_yes[28] 	10158
scalar tree_4_3_u01_r14_network.node[28].content_store 	decision_no[28] 	0
scalar tree_4_3_u01_r14_network.node[28].content_store 	decision_ratio[28] 	1
scalar tree_4_3_u01_r14_network.node[29].core_layer 	interests[29] 	12102
scalar tree_4_3_u01_r14_network.node[29].core_layer 	data[29] 	10127
scalar tree_4_3_u01_r14_network.node[29].content_store 	p_hit[29] 	0.1631135349529
scalar tree_4_3_u01_r14_network.node[29].content_store 	hits[29] 	1974
scalar tree_4_3_u01_r14_network.node[29].content_store 	misses[29] 	10128
scalar tree_4_3_u01_r14_network.node[29].content_store 	decision_yes[29] 	10127
scalar tree_4_3_u01_r14_network.node[29].content_store 	decision_no[29] 	0
scalar tree_4_3_u01_r14_network.node[29].content_store 	decision_ratio[29] 	1
scalar tree_4_3_u01_r14_network.node[30].core_layer 	interests[30] 	11949
scalar tree_4_3_u01_r14_network.node[30].core_layer 	data[30] 	10109
scalar tree_4_3_u01_r14_network.node[30].content_store 	p_hit[30] 	0.1539877814043
scalar tree_4_3_u01_r14_network.node[30].content_store 	hits[30] 	1840
scalar tree_4_3_u01_r14_network.node[30].content_store 	misses[30] 	10109
scalar tree_4_3_u01_r14_network.node[30].content_store 	decision_yes[30] 	10109
scalar tree_4_3_u01_r14_network.node[30].content_store 	decision_no[30] 	0
scalar tree_4_3_u01_r14_network.node[30].content_store 	decision_ratio[30] 	1
scalar tree_4_3_u01_r14_network.node[31].core_layer 	interests[31] 	11856
scalar tree_4_3_u01_r14_network.node[31].core_layer 	data[31] 	9960
scalar tree_4_3_u01_r14_network.node[31].content_store 	p_hit[31] 	0.15991902834008
scalar tree_4_3_u01_r14_network.node[31].content_store 	hits[31] 	1896
scalar tree_4_3_u01_r14_network.node[31].content_store 	misses[31] 	9960
scalar tree_4_3_u01_r14_network.node[31].content_store 	decision_yes[31] 	9960
scalar tree_4_3_u01_r14_network.node[31].content_store 	decision_no[31] 	0
scalar tree_4_3_u01_r14_network.node[31].content_store 	decision_ratio[31] 	1
scalar tree_4_3_u01_r14_network.node[32].core_layer 	interests[32] 	11931
scalar tree_4_3_u01_r14_network.node[32].core_layer 	data[32] 	10159
scalar tree_4_3_u01_r14_network.node[32].content_store 	p_hit[32] 	0.14843684519319
scalar tree_4_3_u01_r14_network.node[32].content_store 	hits[32] 	1771
scalar tree_4_3_u01_r14_network.node[32].content_store 	misses[32] 	10160
scalar tree_4_3_u01_r14_network.node[32].content_store 	decision_yes[32] 	10159
scalar tree_4_3_u01_r14_network.node[32].content_store 	decision_no[32] 	0
scalar tree_4_3_u01_r14_network.node[32].content_store 	decision_ratio[32] 	1
scalar tree_4_3_u01_r14_network.node[33].core_layer 	interests[33] 	12064
scalar tree_4_3_u01_r14_network.node[33].core_layer 	data[33] 	10137
scalar tree_4_3_u01_r14_network.node[33].content_store 	p_hit[33] 	0.15964854111406
scalar tree_4_3_u01_r14_network.node[33].content_store 	hits[33] 	1926
scalar tree_4_3_u01_r14_network.node[33].content_store 	misses[33] 	10138
scalar tree_4_3_u01_r14_network.node[33].content_store 	decision_yes[33] 	10137
scalar tree_4_3_u01_r14_network.node[33].content_store 	decision_no[33] 	0
scalar tree_4_3_u01_r14_network.node[33].content_store 	decision_ratio[33] 	1
scalar tree_4_3_u01_r14_network.node[34].core_layer 	interests[34] 	11982
scalar tree_4_3_u01_r14_network.node[34].core_layer 	data[34] 	10108
scalar tree_4_3_u01_r14_network.node[34].content_store 	p_hit[34] 	0.15640126856952
scalar tree_4_3_u01_r14_network.node[34].content_store 	hits[34] 	1874
scalar tree_4_3_u01_r14_network.node[34].content_store 	misses[34] 	10108
scalar tree_4_3_u01_r14_network.node[34].content_store 	decision_yes[34] 	10108
scalar tree_4_3_u01_r14_network.node[34].content_store 	decision_no[34] 	0
scalar tree_4_3_u01_r14_network.node[34].content_store 	decision_ratio[34] 	1
scalar tree_4_3_u01_r14_network.node[35].core_layer 	interests[35] 	12058
scalar tree_4_3_u01_r14_network.node[35].core_layer 	data[35] 	10129
scalar tree_4_3_u01_r14_network.node[35].content_store 	p_hit[35] 	0.16005971139492
scalar tree_4_3_u01_r14_network.node[35].content_store 	hits[35] 	1930
scalar tree_4_3_u01_r14_network.node[35].content_store 	misses[35] 	10128
scalar tree_4_3_u01_r14_network.node[35].content_store 	decision_yes[35] 	10129
scalar tree_4_3_u01_r14_network.node[35].content_store 	decision_no[35] 	0
scalar tree_4_3_u01_r14_network.node[35].content_store 	decision_ratio[35] 	1
scalar tree_4_3_u01_r14_network.node[36].core_layer 	interests[36] 	12184
scalar tree_4_3_u01_r14_network.node[36].core_layer 	data[36] 	10324
scalar tree_4_3_u01_r14_network.node[36].content_store 	p_hit[36] 	0.15257715036113
scalar tree_4_3_u01_r14_network.node[36].content_store 	hits[36] 	1859
scalar tree_4_3_u01_r14_network.node[36].content_store 	misses[36] 	10325
scalar tree_4_3_u01_r14_network.node[36].content_store 	decision_yes[36] 	10324
scalar tree_4_3_u01_r14_network.node[36].content_store 	decision_no[36] 	0
scalar tree_4_3_u01_r14_network.node[36].content_store 	decision_ratio[36] 	1
scalar tree_4_3_u01_r14_network.node[37].core_layer 	interests[37] 	12011
scalar tree_4_3_u01_r14_network.node[37].core_layer 	data[37] 	10140
scalar tree_4_3_u01_r14_network.node[37].content_store 	p_hit[37] 	0.15560735992007
scalar tree_4_3_u01_r14_network.node[37].content_store 	hits[37] 	1869
scalar tree_4_3_u01_r14_network.node[37].content_store 	misses[37] 	10142
scalar tree_4_3_u01_r14_network.node[37].content_store 	decision_yes[37] 	10140
scalar tree_4_3_u01_r14_network.node[37].content_store 	decision_no[37] 	0
scalar tree_4_3_u01_r14_network.node[37].content_store 	decision_ratio[37] 	1
scalar tree_4_3_u01_r14_network.node[38].core_layer 	interests[38] 	11803
scalar tree_4_3_u01_r14_network.node[38].core_layer 	data[38] 	9977
scalar tree_4_3_u01_r14_network.node[38].content_store 	p_hit[38] 	0.15479115479115
scalar tree_4_3_u01_r14_network.node[38].content_store 	hits[38] 	1827
scalar tree_4_3_u01_r14_network.node[38].content_store 	misses[38] 	9976
scalar tree_4_3_u01_r14_network.node[38].content_store 	decision_yes[38] 	9977
scalar tree_4_3_u01_r14_network.node[38].content_store 	decision_no[38] 	0
scalar tree_4_3_u01_r14_network.node[38].content_store 	decision_ratio[38] 	1
scalar tree_4_3_u01_r14_network.node[39].core_layer 	interests[39] 	11847
scalar tree_4_3_u01_r14_network.node[39].core_layer 	data[39] 	10062
scalar tree_4_3_u01_r14_network.node[39].content_store 	p_hit[39] 	0.15050223685321
scalar tree_4_3_u01_r14_network.node[39].content_store 	hits[39] 	1783
scalar tree_4_3_u01_r14_network.node[39].content_store 	misses[39] 	10064
scalar tree_4_3_u01_r14_network.node[39].content_store 	decision_yes[39] 	10062
scalar tree_4_3_u01_r14_network.node[39].content_store 	decision_no[39] 	0
scalar tree_4_3_u01_r14_network.node[39].content_store 	decision_ratio[39] 	1
scalar tree_4_3_u01_r14_network.client[13] 	hdistance[13] 	3.2494087837838
scalar tree_4_3_u01_r14_network.client[13] 	downloads[13] 	11840
scalar tree_4_3_u01_r14_network.client[13] 	avg_time[13] 	0.004928639651
scalar tree_4_3_u01_r14_network.client[14] 	hdistance[14] 	3.2561738836265
scalar tree_4_3_u01_r14_network.client[14] 	downloads[14] 	11824
scalar tree_4_3_u01_r14_network.client[14] 	avg_time[14] 	0.004936745285
scalar tree_4_3_u01_r14_network.client[15] 	hdistance[15] 	3.2133877279161
scalar tree_4_3_u01_r14_network.client[15] 	downloads[15] 	12011
scalar tree_4_3_u01_r14_network.client[15] 	avg_time[15] 	0.004872863556
scalar tree_4_3_u01_r14_network.client[16] 	hdistance[16] 	3.2767478593399
scalar tree_4_3_u01_r14_network.client[16] 	downloads[16] 	12029
scalar tree_4_3_u01_r14_network.client[16] 	avg_time[16] 	0.004966381869
scalar tree_4_3_u01_r14_network.client[17] 	hdistance[17] 	3.2756610627693
scalar tree_4_3_u01_r14_network.client[17] 	downloads[17] 	11837
scalar tree_4_3_u01_r14_network.client[17] 	avg_time[17] 	0.004963764663
scalar tree_4_3_u01_r14_network.client[18] 	hdistance[18] 	3.2804626187526
scalar tree_4_3_u01_r14_network.client[18] 	downloads[18] 	12105
scalar tree_4_3_u01_r14_network.client[18] 	avg_time[18] 	0.004974405853
scalar tree_4_3_u01_r14_network.client[19] 	hdistance[19] 	3.2460715754833
scalar tree_4_3_u01_r14_network.client[19] 	downloads[19] 	12155
scalar tree_4_3_u01_r14_network.client[19] 	avg_time[19] 	0.004922909319
scalar tree_4_3_u01_r14_network.client[20] 	hdistance[20] 	3.241456166419
scalar tree_4_3_u01_r14_network.client[20] 	downloads[20] 	12114
scalar tree_4_3_u01_r14_network.client[20] 	avg_time[20] 	0.004915390165
scalar tree_4_3_u01_r14_network.client[21] 	hdistance[21] 	3.2514551804424
scalar tree_4_3_u01_r14_network.client[21] 	downloads[21] 	12026
scalar tree_4_3_u01_r14_network.client[21] 	avg_time[21] 	0.004933016339
scalar tree_4_3_u01_r14_network.client[22] 	hdistance[22] 	3.2509803921569
scalar tree_4_3_u01_r14_network.client[22] 	downloads[22] 	11985
scalar tree_4_3_u01_r14_network.client[22] 	avg_time[22] 	0.004930508126
scalar tree_4_3_u01_r14_network.client[23] 	hdistance[23] 	3.2546063651591
scalar tree_4_3_u01_r14_network.client[23] 	downloads[23] 	11940
scalar tree_4_3_u01_r14_network.client[23] 	avg_time[23] 	0.004940676391
scalar tree_4_3_u01_r14_network.client[24] 	hdistance[24] 	3.252276867031
scalar tree_4_3_u01_r14_network.client[24] 	downloads[24] 	12078
scalar tree_4_3_u01_r14_network.client[24] 	avg_time[24] 	0.004932300063
scalar tree_4_3_u01_r14_network.client[25] 	hdistance[25] 	3.250840232806
scalar tree_4_3_u01_r14_network.client[25] 	downloads[25] 	12199
scalar tree_4_3_u01_r14_network.client[25] 	avg_time[25] 	0.004929919121
scalar tree_4_3_u01_r14_network.client[26] 	hdistance[26] 	3.2723106407799
scalar tree_4_3_u01_r14_network.client[26] 	downloads[26] 	12001
scalar tree_4_3_u01_r14_network.client[26] 	avg_time[26] 	0.004958644244
scalar tree_4_3_u01_r14_network.client[27] 	hdistance[27] 	3.2068509018699
scalar tree_4_3_u01_r14_network.client[27] 	downloads[27] 	12086
scalar tree_4_3_u01_r14_network.client[27] 	avg_time[27] 	0.004862105186
scalar tree_4_3_u01_r14_network.client[28] 	hdistance[28] 	3.2727651767845
scalar tree_4_3_u01_r14_network.client[28] 	downloads[28] 	11992
scalar tree_4_3_u01_r14_network.client[28] 	avg_time[28] 	0.00496438784
scalar tree_4_3_u01_r14_network.client[29] 	hdistance[29] 	3.2222956780431
scalar tree_4_3_u01_r14_network.client[29] 	downloads[29] 	12101
scalar tree_4_3_u01_r14_network.client[29] 	avg_time[29] 	0.004882138787
scalar tree_4_3_u01_r14_network.client[30] 	hdistance[30] 	3.2683906603063
scalar tree_4_3_u01_r14_network.client[30] 	downloads[30] 	11949
scalar tree_4_3_u01_r14_network.client[30] 	avg_time[30] 	0.004955725526
scalar tree_4_3_u01_r14_network.client[31] 	hdistance[31] 	3.2385290148448
scalar tree_4_3_u01_r14_network.client[31] 	downloads[31] 	11856
scalar tree_4_3_u01_r14_network.client[31] 	avg_time[31] 	0.004909686954
scalar tree_4_3_u01_r14_network.client[32] 	hdistance[32] 	3.2774518021794
scalar tree_4_3_u01_r14_network.client[32] 	downloads[32] 	11930
scalar tree_4_3_u01_r14_network.client[32] 	avg_time[32] 	0.004967915245
scalar tree_4_3_u01_r14_network.client[33] 	hdistance[33] 	3.2380004973887
scalar tree_4_3_u01_r14_network.client[33] 	downloads[33] 	12063
scalar tree_4_3_u01_r14_network.client[33] 	avg_time[33] 	0.00491054991
scalar tree_4_3_u01_r14_network.client[34] 	hdistance[34] 	3.2479552662327
scalar tree_4_3_u01_r14_network.client[34] 	downloads[34] 	11982
scalar tree_4_3_u01_r14_network.client[34] 	avg_time[34] 	0.004926003487
scalar tree_4_3_u01_r14_network.client[35] 	hdistance[35] 	3.2315283190978
scalar tree_4_3_u01_r14_network.client[35] 	downloads[35] 	12059
scalar tree_4_3_u01_r14_network.client[35] 	avg_time[35] 	0.00490244887
scalar tree_4_3_u01_r14_network.client[36] 	hdistance[36] 	3.2652876959698
scalar tree_4_3_u01_r14_network.client[36] 	downloads[36] 	12183
scalar tree_4_3_u01_r14_network.client[36] 	avg_time[36] 	0.004949692311
scalar tree_4_3_u01_r14_network.client[37] 	hdistance[37] 	3.2626363560663
scalar tree_4_3_u01_r14_network.client[37] 	downloads[37] 	12009
scalar tree_4_3_u01_r14_network.client[37] 	avg_time[37] 	0.004943243614
scalar tree_4_3_u01_r14_network.client[38] 	hdistance[38] 	3.2674517112843
scalar tree_4_3_u01_r14_network.client[38] 	downloads[38] 	11804
scalar tree_4_3_u01_r14_network.client[38] 	avg_time[38] 	0.004950402919
scalar tree_4_3_u01_r14_network.client[39] 	hdistance[39] 	3.2745462220346
scalar tree_4_3_u01_r14_network.client[39] 	downloads[39] 	11845
scalar tree_4_3_u01_r14_network.client[39] 	avg_time[39] 	0.004965694538
