version 2
run General-22-20160822-14:18:22-32430
attr D fix0.005
attr F nrr
attr R lru
attr a 0.8
attr configname General
attr datetime 20160822-14:18:22
attr experiment General
attr inifile hw5115/scenario_B/bus.ini
attr iterationvars "$net=bus, $rep=0, $a=0.8, $F=nrr, $D=fix0.005, $R=lru, $window=60, $variance=0.05, $mytime=600"
attr iterationvars2 "$net=bus, $rep=0, $a=0.8, $F=nrr, $D=fix0.005, $R=lru, $window=60, $variance=0.05, $mytime=600, $repetition=0"
attr measurement "$net=bus, $rep=0, $a=0.8, $F=nrr, $D=fix0.005, $R=lru, $window=60, $variance=0.05, $mytime=600"
attr mytime 600
attr net bus
attr network networks.${net=bus}_network
attr processid 32430
attr rep 0
attr repetition 0
attr replication #0
attr resultdir results
attr runnumber 22
attr seedset 0
attr variance 0.05
attr window 60

scalar . 	a 	0.8
scalar . 	mytime 	600
scalar . 	rep 	0
scalar . 	variance 	0.05
scalar . 	window 	60
scalar bus_network.content_distribution 	repo-0 	9
scalar bus_network.content_distribution 	client-0 	5
scalar bus_network.content_distribution 	client-1 	8
scalar bus_network.content_distribution 	client-2 	9
scalar bus_network.content_distribution 	client-3 	0
scalar bus_network.content_distribution 	client-4 	1
scalar bus_network.content_distribution 	client-5 	7
scalar bus_network.content_distribution 	client-6 	6
scalar bus_network.content_distribution 	client-7 	2
scalar bus_network.content_distribution 	client-8 	4
scalar bus_network.content_distribution 	client-9 	3
scalar bus_network.content_distribution 	repo-0_card 	100000
scalar bus_network.content_distribution 	repo-0_price 	0
scalar bus_network.statistics 	stabilization_time 	1560.2
scalar bus_network.statistics 	p_hit 	0.066245144174356
scalar bus_network.statistics 	interests 	55541.8
scalar bus_network.statistics 	data 	43520.1
scalar bus_network.statistics 	hdistance 	4.388198295763
scalar bus_network.statistics 	avg_time 	0.00723454704
scalar bus_network.statistics 	downloads 	120211
scalar bus_network.statistics 	total_cost 	0
scalar bus_network.statistics 	total_replicas 	100000
scalar bus_network.statistics 	inner_hit 	0.22918035787074
scalar bus_network.node[0].core_layer 	interests[0] 	12594
scalar bus_network.node[0].core_layer 	data[0] 	10970
scalar bus_network.node[0].core_layer 	repo_int[0] 	92661
scalar bus_network.node[0].content_store 	p_hit[0] 	0.12887089090043
scalar bus_network.node[0].content_store 	hits[0] 	1623
scalar bus_network.node[0].content_store 	misses[0] 	10971
scalar bus_network.node[0].content_store 	decision_yes[0] 	46
scalar bus_network.node[0].content_store 	decision_no[0] 	10924
scalar bus_network.node[0].content_store 	decision_ratio[0] 	0.0041932543299909
scalar bus_network.node[1].core_layer 	interests[1] 	24336
scalar bus_network.node[1].core_layer 	data[1] 	21568
scalar bus_network.node[1].content_store 	p_hit[1] 	0.11365877712032
scalar bus_network.node[1].content_store 	hits[1] 	2766
scalar bus_network.node[1].content_store 	misses[1] 	21570
scalar bus_network.node[1].content_store 	decision_yes[1] 	101
scalar bus_network.node[1].content_store 	decision_no[1] 	21467
scalar bus_network.node[1].content_store 	decision_ratio[1] 	0.0046828635014837
scalar bus_network.node[2].core_layer 	interests[2] 	34554
scalar bus_network.node[2].core_layer 	data[2] 	30781
scalar bus_network.node[2].content_store 	p_hit[2] 	0.10913353012676
scalar bus_network.node[2].content_store 	hits[2] 	3771
scalar bus_network.node[2].content_store 	misses[2] 	30783
scalar bus_network.node[2].content_store 	decision_yes[2] 	149
scalar bus_network.node[2].content_store 	decision_no[2] 	30632
scalar bus_network.node[2].content_store 	decision_ratio[2] 	0.0048406484519671
scalar bus_network.node[3].core_layer 	interests[3] 	43678
scalar bus_network.node[3].core_layer 	data[3] 	40387
scalar bus_network.node[3].content_store 	p_hit[3] 	0.075323961719859
scalar bus_network.node[3].content_store 	hits[3] 	3290
scalar bus_network.node[3].content_store 	misses[3] 	40388
scalar bus_network.node[3].content_store 	decision_yes[3] 	204
scalar bus_network.node[3].content_store 	decision_no[3] 	40183
scalar bus_network.node[3].content_store 	decision_ratio[3] 	0.00505113031421
scalar bus_network.node[4].core_layer 	interests[4] 	52444
scalar bus_network.node[4].core_layer 	data[4] 	49428
scalar bus_network.node[4].content_store 	p_hit[4] 	0.057489893982152
scalar bus_network.node[4].content_store 	hits[4] 	3015
scalar bus_network.node[4].content_store 	misses[4] 	49429
scalar bus_network.node[4].content_store 	decision_yes[4] 	247
scalar bus_network.node[4].content_store 	decision_no[4] 	49181
scalar bus_network.node[4].content_store 	decision_ratio[4] 	0.0049971675973133
scalar bus_network.node[5].core_layer 	interests[5] 	61120
scalar bus_network.node[5].core_layer 	data[5] 	57916
scalar bus_network.node[5].content_store 	p_hit[5] 	0.052405104712042
scalar bus_network.node[5].content_store 	hits[5] 	3203
scalar bus_network.node[5].content_store 	misses[5] 	57917
scalar bus_network.node[5].content_store 	decision_yes[5] 	294
scalar bus_network.node[5].content_store 	decision_no[5] 	57622
scalar bus_network.node[5].content_store 	decision_ratio[5] 	0.0050763174252365
scalar bus_network.node[6].core_layer 	interests[6] 	69365
scalar bus_network.node[6].core_layer 	data[6] 	66091
scalar bus_network.node[6].content_store 	p_hit[6] 	0.047185179845744
scalar bus_network.node[6].content_store 	hits[6] 	3273
scalar bus_network.node[6].content_store 	misses[6] 	66092
scalar bus_network.node[6].content_store 	decision_yes[6] 	314
scalar bus_network.node[6].content_store 	decision_no[6] 	65777
scalar bus_network.node[6].content_store 	decision_ratio[6] 	0.0047510251017536
scalar bus_network.node[7].core_layer 	interests[7] 	77339
scalar bus_network.node[7].core_layer 	data[7] 	74583
scalar bus_network.node[7].content_store 	p_hit[7] 	0.035635319825702
scalar bus_network.node[7].content_store 	hits[7] 	2756
scalar bus_network.node[7].content_store 	misses[7] 	74583
scalar bus_network.node[7].content_store 	decision_yes[7] 	381
scalar bus_network.node[7].content_store 	decision_no[7] 	74202
scalar bus_network.node[7].content_store 	decision_ratio[7] 	0.0051084027191183
scalar bus_network.node[8].core_layer 	interests[8] 	85284
scalar bus_network.node[8].core_layer 	data[8] 	83477
scalar bus_network.node[8].content_store 	p_hit[8] 	0.021176305051358
scalar bus_network.node[8].content_store 	hits[8] 	1806
scalar bus_network.node[8].content_store 	misses[8] 	83478
scalar bus_network.node[8].content_store 	decision_yes[8] 	403
scalar bus_network.node[8].content_store 	decision_no[8] 	83074
scalar bus_network.node[8].content_store 	decision_ratio[8] 	0.004827677084706
scalar bus_network.node[9].core_layer 	interests[9] 	94704
scalar bus_network.node[9].core_layer 	repo_load[9] 	92661
scalar bus_network.node[9].core_layer 	data[9] 	0
scalar bus_network.node[9].content_store 	p_hit[9] 	0.021572478459199
scalar bus_network.node[9].content_store 	hits[9] 	2043
scalar bus_network.node[9].content_store 	misses[9] 	92661
scalar bus_network.node[9].content_store 	decision_yes[9] 	477
scalar bus_network.node[9].content_store 	decision_no[9] 	92184
scalar bus_network.node[9].content_store 	decision_ratio[9] 	0.0051477968077185
scalar bus_network.client[0] 	hdistance[0] 	7.9402972681226
scalar bus_network.client[0] 	downloads[0] 	12043
scalar bus_network.client[0] 	avg_time[0] 	0.014402222317
scalar bus_network.client[1] 	hdistance[1] 	7.0624845437309
scalar bus_network.client[1] 	downloads[1] 	12131
scalar bus_network.client[1] 	avg_time[1] 	0.012644347275
scalar bus_network.client[2] 	hdistance[2] 	6.1951095262354
scalar bus_network.client[2] 	downloads[2] 	11778
scalar bus_network.client[2] 	avg_time[2] 	0.010922693418
scalar bus_network.client[3] 	hdistance[3] 	5.4664448592064
scalar bus_network.client[3] 	downloads[3] 	12323
scalar bus_network.client[3] 	avg_time[3] 	0.009456460473
scalar bus_network.client[4] 	hdistance[4] 	4.7248355673965
scalar bus_network.client[4] 	downloads[4] 	12011
scalar bus_network.client[4] 	avg_time[4] 	0.007970281541
scalar bus_network.client[5] 	hdistance[5] 	3.9792465410902
scalar bus_network.client[5] 	downloads[5] 	11998
scalar bus_network.client[5] 	avg_time[5] 	0.00648530062
scalar bus_network.client[6] 	hdistance[6] 	3.301966056125
scalar bus_network.client[6] 	downloads[6] 	11902
scalar bus_network.client[6] 	avg_time[6] 	0.005072925969
scalar bus_network.client[7] 	hdistance[7] 	2.520315648086
scalar bus_network.client[7] 	downloads[7] 	11912
scalar bus_network.client[7] 	avg_time[7] 	0.003482535666
scalar bus_network.client[8] 	hdistance[8] 	1.7758320192547
scalar bus_network.client[8] 	downloads[8] 	12049
scalar bus_network.client[8] 	avg_time[8] 	0.001908703124
scalar bus_network.client[9] 	hdistance[9] 	0.91545092838196
scalar bus_network.client[9] 	downloads[9] 	12064
scalar bus_network.client[9] 	avg_time[9] 	0
