version 2
run General-551-20160901-13:15:48-8710
attr a 0.9
attr cd tfc
attr configname General
attr cr lru
attr datetime 20160901-13:15:48
attr experiment General
attr fsize 1
attr inifile hw5115/scenario_Y/omnetp.ini
attr iterationvars "$name=tree_4_3, $un=09, $rep=4, $cd=tfc, $cr=lru, $fsize=1, $a=0.9, $sl=nrr, $ttl=1000, $variance=0.05"
attr iterationvars2 "$name=tree_4_3, $un=09, $rep=4, $cd=tfc, $cr=lru, $fsize=1, $a=0.9, $sl=nrr, $ttl=1000, $variance=0.05, $repetition=0"
attr measurement "$name=tree_4_3, $un=09, $rep=4, $cd=tfc, $cr=lru, $fsize=1, $a=0.9, $sl=nrr, $ttl=1000, $variance=0.05"
attr name tree_4_3
attr network networks.${name}_u${un}_r${rep}_network
attr processid 8710
attr rep 4
attr repetition 0
attr replication #0
attr resultdir results
attr runnumber 551
attr seedset 4
attr sl nrr
attr ttl 1000
attr un 09
attr variance 0.05

scalar . 	a 	0.9
scalar . 	fsize 	1
scalar . 	rep 	4
scalar . 	ttl 	1000
scalar . 	un 	09
scalar . 	variance 	0.05
scalar tree_4_3_u09_r4_network.content_distribution 	repo-0 	0
scalar tree_4_3_u09_r4_network.content_distribution 	client-0 	13
scalar tree_4_3_u09_r4_network.content_distribution 	client-1 	14
scalar tree_4_3_u09_r4_network.content_distribution 	client-2 	15
scalar tree_4_3_u09_r4_network.content_distribution 	client-3 	16
scalar tree_4_3_u09_r4_network.content_distribution 	client-4 	17
scalar tree_4_3_u09_r4_network.content_distribution 	client-5 	18
scalar tree_4_3_u09_r4_network.content_distribution 	client-6 	19
scalar tree_4_3_u09_r4_network.content_distribution 	client-7 	20
scalar tree_4_3_u09_r4_network.content_distribution 	client-8 	21
scalar tree_4_3_u09_r4_network.content_distribution 	client-9 	22
scalar tree_4_3_u09_r4_network.content_distribution 	client-10 	23
scalar tree_4_3_u09_r4_network.content_distribution 	client-11 	24
scalar tree_4_3_u09_r4_network.content_distribution 	client-12 	25
scalar tree_4_3_u09_r4_network.content_distribution 	client-13 	26
scalar tree_4_3_u09_r4_network.content_distribution 	client-14 	27
scalar tree_4_3_u09_r4_network.content_distribution 	client-15 	28
scalar tree_4_3_u09_r4_network.content_distribution 	client-16 	29
scalar tree_4_3_u09_r4_network.content_distribution 	client-17 	30
scalar tree_4_3_u09_r4_network.content_distribution 	client-18 	31
scalar tree_4_3_u09_r4_network.content_distribution 	client-19 	32
scalar tree_4_3_u09_r4_network.content_distribution 	client-20 	33
scalar tree_4_3_u09_r4_network.content_distribution 	client-21 	34
scalar tree_4_3_u09_r4_network.content_distribution 	client-22 	35
scalar tree_4_3_u09_r4_network.content_distribution 	client-23 	36
scalar tree_4_3_u09_r4_network.content_distribution 	client-24 	37
scalar tree_4_3_u09_r4_network.content_distribution 	client-25 	38
scalar tree_4_3_u09_r4_network.content_distribution 	client-26 	39
scalar tree_4_3_u09_r4_network.content_distribution 	repo-0_card 	100000
scalar tree_4_3_u09_r4_network.content_distribution 	repo-0_price 	0
scalar tree_4_3_u09_r4_network.statistics 	stabilization_time 	1886.6
scalar tree_4_3_u09_r4_network.statistics 	p_hit 	0.23589160154478
scalar tree_4_3_u09_r4_network.statistics 	interests 	24400.625
scalar tree_4_3_u09_r4_network.statistics 	data 	16308.45
scalar tree_4_3_u09_r4_network.statistics 	hdistance 	2.6009218110006
scalar tree_4_3_u09_r4_network.statistics 	avg_time 	0.004030868338
scalar tree_4_3_u09_r4_network.statistics 	downloads 	323677
scalar tree_4_3_u09_r4_network.statistics 	total_cost 	0
scalar tree_4_3_u09_r4_network.statistics 	total_replicas 	100000
scalar tree_4_3_u09_r4_network.statistics 	inner_hit 	0.4145737880665
scalar tree_4_3_u09_r4_network.node[0].core_layer 	interests[0] 	192820
scalar tree_4_3_u09_r4_network.node[0].core_layer 	repo_load[0] 	189489
scalar tree_4_3_u09_r4_network.node[0].core_layer 	data[0] 	0
scalar tree_4_3_u09_r4_network.node[0].core_layer 	repo_int[0] 	189489
scalar tree_4_3_u09_r4_network.node[0].content_store 	p_hit[0] 	0.017275178923348
scalar tree_4_3_u09_r4_network.node[0].content_store 	hits[0] 	3331
scalar tree_4_3_u09_r4_network.node[0].content_store 	misses[0] 	189489
scalar tree_4_3_u09_r4_network.node[0].content_store 	decision_yes[0] 	951
scalar tree_4_3_u09_r4_network.node[0].content_store 	decision_no[0] 	188538
scalar tree_4_3_u09_r4_network.node[0].content_store 	decision_ratio[0] 	0.0050187609834872
scalar tree_4_3_u09_r4_network.node[1].core_layer 	interests[1] 	134000
scalar tree_4_3_u09_r4_network.node[1].core_layer 	data[1] 	130676
scalar tree_4_3_u09_r4_network.node[1].content_store 	p_hit[1] 	0.024761194029851
scalar tree_4_3_u09_r4_network.node[1].content_store 	hits[1] 	3318
scalar tree_4_3_u09_r4_network.node[1].content_store 	misses[1] 	130682
scalar tree_4_3_u09_r4_network.node[1].content_store 	decision_yes[1] 	107
scalar tree_4_3_u09_r4_network.node[1].content_store 	decision_no[1] 	130569
scalar tree_4_3_u09_r4_network.node[1].content_store 	decision_ratio[1] 	0.00081881906394441
scalar tree_4_3_u09_r4_network.node[2].core_layer 	interests[2] 	63395
scalar tree_4_3_u09_r4_network.node[2].core_layer 	data[2] 	60051
scalar tree_4_3_u09_r4_network.node[2].content_store 	p_hit[2] 	0.052748639482609
scalar tree_4_3_u09_r4_network.node[2].content_store 	hits[2] 	3344
scalar tree_4_3_u09_r4_network.node[2].content_store 	misses[2] 	60051
scalar tree_4_3_u09_r4_network.node[2].content_store 	decision_yes[2] 	100
scalar tree_4_3_u09_r4_network.node[2].content_store 	decision_no[2] 	59951
scalar tree_4_3_u09_r4_network.node[2].content_store 	decision_ratio[2] 	0.001665251203144
scalar tree_4_3_u09_r4_network.node[3].core_layer 	interests[3] 	11497
scalar tree_4_3_u09_r4_network.node[3].core_layer 	data[3] 	8380
scalar tree_4_3_u09_r4_network.node[3].content_store 	p_hit[3] 	0.27111420370531
scalar tree_4_3_u09_r4_network.node[3].content_store 	hits[3] 	3117
scalar tree_4_3_u09_r4_network.node[3].content_store 	misses[3] 	8380
scalar tree_4_3_u09_r4_network.node[3].content_store 	decision_yes[3] 	97
scalar tree_4_3_u09_r4_network.node[3].content_store 	decision_no[3] 	8283
scalar tree_4_3_u09_r4_network.node[3].content_store 	decision_ratio[3] 	0.011575178997613
scalar tree_4_3_u09_r4_network.node[4].core_layer 	interests[4] 	41013
scalar tree_4_3_u09_r4_network.node[4].core_layer 	data[4] 	38672
scalar tree_4_3_u09_r4_network.node[4].content_store 	p_hit[4] 	0.057055080096555
scalar tree_4_3_u09_r4_network.node[4].content_store 	hits[4] 	2340
scalar tree_4_3_u09_r4_network.node[4].content_store 	misses[4] 	38673
scalar tree_4_3_u09_r4_network.node[4].content_store 	decision_yes[4] 	77
scalar tree_4_3_u09_r4_network.node[4].content_store 	decision_no[4] 	38595
scalar tree_4_3_u09_r4_network.node[4].content_store 	decision_ratio[4] 	0.0019911046752172
scalar tree_4_3_u09_r4_network.node[5].core_layer 	interests[5] 	27332
scalar tree_4_3_u09_r4_network.node[5].core_layer 	data[5] 	24375
scalar tree_4_3_u09_r4_network.node[5].content_store 	p_hit[5] 	0.10818820430265
scalar tree_4_3_u09_r4_network.node[5].content_store 	hits[5] 	2957
scalar tree_4_3_u09_r4_network.node[5].content_store 	misses[5] 	24375
scalar tree_4_3_u09_r4_network.node[5].content_store 	decision_yes[5] 	118
scalar tree_4_3_u09_r4_network.node[5].content_store 	decision_no[5] 	24257
scalar tree_4_3_u09_r4_network.node[5].content_store 	decision_ratio[5] 	0.0048410256410256
scalar tree_4_3_u09_r4_network.node[6].core_layer 	interests[6] 	12145
scalar tree_4_3_u09_r4_network.node[6].core_layer 	data[6] 	9563
scalar tree_4_3_u09_r4_network.node[6].content_store 	p_hit[6] 	0.21259777686291
scalar tree_4_3_u09_r4_network.node[6].content_store 	hits[6] 	2582
scalar tree_4_3_u09_r4_network.node[6].content_store 	misses[6] 	9563
scalar tree_4_3_u09_r4_network.node[6].content_store 	decision_yes[6] 	161
scalar tree_4_3_u09_r4_network.node[6].content_store 	decision_no[6] 	9402
scalar tree_4_3_u09_r4_network.node[6].content_store 	decision_ratio[6] 	0.016835721008052
scalar tree_4_3_u09_r4_network.node[7].core_layer 	interests[7] 	34311
scalar tree_4_3_u09_r4_network.node[7].core_layer 	data[7] 	31615
scalar tree_4_3_u09_r4_network.node[7].content_store 	p_hit[7] 	0.078517093643438
scalar tree_4_3_u09_r4_network.node[7].content_store 	hits[7] 	2694
scalar tree_4_3_u09_r4_network.node[7].content_store 	misses[7] 	31617
scalar tree_4_3_u09_r4_network.node[7].content_store 	decision_yes[7] 	71
scalar tree_4_3_u09_r4_network.node[7].content_store 	decision_no[7] 	31544
scalar tree_4_3_u09_r4_network.node[7].content_store 	decision_ratio[7] 	0.0022457694132532
scalar tree_4_3_u09_r4_network.node[8].core_layer 	interests[8] 	34319
scalar tree_4_3_u09_r4_network.node[8].core_layer 	data[8] 	31967
scalar tree_4_3_u09_r4_network.node[8].content_store 	p_hit[8] 	0.068504327049156
scalar tree_4_3_u09_r4_network.node[8].content_store 	hits[8] 	2351
scalar tree_4_3_u09_r4_network.node[8].content_store 	misses[8] 	31968
scalar tree_4_3_u09_r4_network.node[8].content_store 	decision_yes[8] 	84
scalar tree_4_3_u09_r4_network.node[8].content_store 	decision_no[8] 	31883
scalar tree_4_3_u09_r4_network.node[8].content_store 	decision_ratio[8] 	0.0026277098257578
scalar tree_4_3_u09_r4_network.node[9].core_layer 	interests[9] 	12051
scalar tree_4_3_u09_r4_network.node[9].core_layer 	data[9] 	9532
scalar tree_4_3_u09_r4_network.node[9].content_store 	p_hit[9] 	0.20902829640694
scalar tree_4_3_u09_r4_network.node[9].content_store 	hits[9] 	2519
scalar tree_4_3_u09_r4_network.node[9].content_store 	misses[9] 	9532
scalar tree_4_3_u09_r4_network.node[9].content_store 	decision_yes[9] 	178
scalar tree_4_3_u09_r4_network.node[9].content_store 	decision_no[9] 	9354
scalar tree_4_3_u09_r4_network.node[9].content_store 	decision_ratio[9] 	0.018673940411246
scalar tree_4_3_u09_r4_network.node[10].core_layer 	interests[10] 	42475
scalar tree_4_3_u09_r4_network.node[10].core_layer 	data[10] 	39881
scalar tree_4_3_u09_r4_network.node[10].content_store 	p_hit[10] 	0.061071218363743
scalar tree_4_3_u09_r4_network.node[10].content_store 	hits[10] 	2594
scalar tree_4_3_u09_r4_network.node[10].content_store 	misses[10] 	39881
scalar tree_4_3_u09_r4_network.node[10].content_store 	decision_yes[10] 	125
scalar tree_4_3_u09_r4_network.node[10].content_store 	decision_no[10] 	39756
scalar tree_4_3_u09_r4_network.node[10].content_store 	decision_ratio[10] 	0.0031343246157318
scalar tree_4_3_u09_r4_network.node[11].core_layer 	interests[11] 	26639
scalar tree_4_3_u09_r4_network.node[11].core_layer 	data[11] 	24382
scalar tree_4_3_u09_r4_network.node[11].content_store 	p_hit[11] 	0.084725402605203
scalar tree_4_3_u09_r4_network.node[11].content_store 	hits[11] 	2257
scalar tree_4_3_u09_r4_network.node[11].content_store 	misses[11] 	24382
scalar tree_4_3_u09_r4_network.node[11].content_store 	decision_yes[11] 	69
scalar tree_4_3_u09_r4_network.node[11].content_store 	decision_no[11] 	24313
scalar tree_4_3_u09_r4_network.node[11].content_store 	decision_ratio[11] 	0.0028299565253056
scalar tree_4_3_u09_r4_network.node[12].core_layer 	interests[12] 	10750
scalar tree_4_3_u09_r4_network.node[12].core_layer 	data[12] 	8498
scalar tree_4_3_u09_r4_network.node[12].content_store 	p_hit[12] 	0.20948837209302
scalar tree_4_3_u09_r4_network.node[12].content_store 	hits[12] 	2252
scalar tree_4_3_u09_r4_network.node[12].content_store 	misses[12] 	8498
scalar tree_4_3_u09_r4_network.node[12].content_store 	decision_yes[12] 	85
scalar tree_4_3_u09_r4_network.node[12].content_store 	decision_no[12] 	8413
scalar tree_4_3_u09_r4_network.node[12].content_store 	decision_ratio[12] 	0.01000235349494
scalar tree_4_3_u09_r4_network.node[13].core_layer 	interests[13] 	12210
scalar tree_4_3_u09_r4_network.node[13].core_layer 	data[13] 	8633
scalar tree_4_3_u09_r4_network.node[13].content_store 	p_hit[13] 	0.29295659295659
scalar tree_4_3_u09_r4_network.node[13].content_store 	hits[13] 	3577
scalar tree_4_3_u09_r4_network.node[13].content_store 	misses[13] 	8633
scalar tree_4_3_u09_r4_network.node[13].content_store 	decision_yes[13] 	32
scalar tree_4_3_u09_r4_network.node[13].content_store 	decision_no[13] 	8601
scalar tree_4_3_u09_r4_network.node[13].content_store 	decision_ratio[13] 	0.0037067068226572
scalar tree_4_3_u09_r4_network.node[14].core_layer 	interests[14] 	12520
scalar tree_4_3_u09_r4_network.node[14].core_layer 	data[14] 	8773
scalar tree_4_3_u09_r4_network.node[14].content_store 	p_hit[14] 	0.2991214057508
scalar tree_4_3_u09_r4_network.node[14].content_store 	hits[14] 	3745
scalar tree_4_3_u09_r4_network.node[14].content_store 	misses[14] 	8775
scalar tree_4_3_u09_r4_network.node[14].content_store 	decision_yes[14] 	43
scalar tree_4_3_u09_r4_network.node[14].content_store 	decision_no[14] 	8730
scalar tree_4_3_u09_r4_network.node[14].content_store 	decision_ratio[14] 	0.0049014020289525
scalar tree_4_3_u09_r4_network.node[15].core_layer 	interests[15] 	12510
scalar tree_4_3_u09_r4_network.node[15].core_layer 	data[15] 	8676
scalar tree_4_3_u09_r4_network.node[15].content_store 	p_hit[15] 	0.30631494804157
scalar tree_4_3_u09_r4_network.node[15].content_store 	hits[15] 	3832
scalar tree_4_3_u09_r4_network.node[15].content_store 	misses[15] 	8678
scalar tree_4_3_u09_r4_network.node[15].content_store 	decision_yes[15] 	44
scalar tree_4_3_u09_r4_network.node[15].content_store 	decision_no[15] 	8632
scalar tree_4_3_u09_r4_network.node[15].content_store 	decision_ratio[15] 	0.0050714615029968
scalar tree_4_3_u09_r4_network.node[16].core_layer 	interests[16] 	12648
scalar tree_4_3_u09_r4_network.node[16].core_layer 	data[16] 	8791
scalar tree_4_3_u09_r4_network.node[16].content_store 	p_hit[16] 	0.3050284629981
scalar tree_4_3_u09_r4_network.node[16].content_store 	hits[16] 	3858
scalar tree_4_3_u09_r4_network.node[16].content_store 	misses[16] 	8790
scalar tree_4_3_u09_r4_network.node[16].content_store 	decision_yes[16] 	49
scalar tree_4_3_u09_r4_network.node[16].content_store 	decision_no[16] 	8742
scalar tree_4_3_u09_r4_network.node[16].content_store 	decision_ratio[16] 	0.0055738823797065
scalar tree_4_3_u09_r4_network.node[17].core_layer 	interests[17] 	12075
scalar tree_4_3_u09_r4_network.node[17].core_layer 	data[17] 	8545
scalar tree_4_3_u09_r4_network.node[17].content_store 	p_hit[17] 	0.29233954451346
scalar tree_4_3_u09_r4_network.node[17].content_store 	hits[17] 	3530
scalar tree_4_3_u09_r4_network.node[17].content_store 	misses[17] 	8545
scalar tree_4_3_u09_r4_network.node[17].content_store 	decision_yes[17] 	24
scalar tree_4_3_u09_r4_network.node[17].content_store 	decision_no[17] 	8521
scalar tree_4_3_u09_r4_network.node[17].content_store 	decision_ratio[17] 	0.0028086600351083
scalar tree_4_3_u09_r4_network.node[18].core_layer 	interests[18] 	12401
scalar tree_4_3_u09_r4_network.node[18].core_layer 	data[18] 	8641
scalar tree_4_3_u09_r4_network.node[18].content_store 	p_hit[18] 	0.30320135472946
scalar tree_4_3_u09_r4_network.node[18].content_store 	hits[18] 	3760
scalar tree_4_3_u09_r4_network.node[18].content_store 	misses[18] 	8641
scalar tree_4_3_u09_r4_network.node[18].content_store 	decision_yes[18] 	39
scalar tree_4_3_u09_r4_network.node[18].content_store 	decision_no[18] 	8602
scalar tree_4_3_u09_r4_network.node[18].content_store 	decision_ratio[18] 	0.004513366508506
scalar tree_4_3_u09_r4_network.node[19].core_layer 	interests[19] 	12295
scalar tree_4_3_u09_r4_network.node[19].core_layer 	data[19] 	8613
scalar tree_4_3_u09_r4_network.node[19].content_store 	p_hit[19] 	0.29947132980887
scalar tree_4_3_u09_r4_network.node[19].content_store 	hits[19] 	3682
scalar tree_4_3_u09_r4_network.node[19].content_store 	misses[19] 	8613
scalar tree_4_3_u09_r4_network.node[19].content_store 	decision_yes[19] 	42
scalar tree_4_3_u09_r4_network.node[19].content_store 	decision_no[19] 	8571
scalar tree_4_3_u09_r4_network.node[19].content_store 	decision_ratio[19] 	0.0048763497039359
scalar tree_4_3_u09_r4_network.node[20].core_layer 	interests[20] 	12547
scalar tree_4_3_u09_r4_network.node[20].core_layer 	data[20] 	8744
scalar tree_4_3_u09_r4_network.node[20].content_store 	p_hit[20] 	0.30310034271141
scalar tree_4_3_u09_r4_network.node[20].content_store 	hits[20] 	3803
scalar tree_4_3_u09_r4_network.node[20].content_store 	misses[20] 	8744
scalar tree_4_3_u09_r4_network.node[20].content_store 	decision_yes[20] 	41
scalar tree_4_3_u09_r4_network.node[20].content_store 	decision_no[20] 	8703
scalar tree_4_3_u09_r4_network.node[20].content_store 	decision_ratio[20] 	0.0046889295516926
scalar tree_4_3_u09_r4_network.node[21].core_layer 	interests[21] 	12242
scalar tree_4_3_u09_r4_network.node[21].core_layer 	data[21] 	8703
scalar tree_4_3_u09_r4_network.node[21].content_store 	p_hit[21] 	0.28908675053096
scalar tree_4_3_u09_r4_network.node[21].content_store 	hits[21] 	3539
scalar tree_4_3_u09_r4_network.node[21].content_store 	misses[21] 	8703
scalar tree_4_3_u09_r4_network.node[21].content_store 	decision_yes[21] 	26
scalar tree_4_3_u09_r4_network.node[21].content_store 	decision_no[21] 	8677
scalar tree_4_3_u09_r4_network.node[21].content_store 	decision_ratio[21] 	0.0029874755831323
scalar tree_4_3_u09_r4_network.node[22].core_layer 	interests[22] 	11997
scalar tree_4_3_u09_r4_network.node[22].core_layer 	data[22] 	8568
scalar tree_4_3_u09_r4_network.node[22].content_store 	p_hit[22] 	0.28582145536384
scalar tree_4_3_u09_r4_network.node[22].content_store 	hits[22] 	3429
scalar tree_4_3_u09_r4_network.node[22].content_store 	misses[22] 	8568
scalar tree_4_3_u09_r4_network.node[22].content_store 	decision_yes[22] 	16
scalar tree_4_3_u09_r4_network.node[22].content_store 	decision_no[22] 	8552
scalar tree_4_3_u09_r4_network.node[22].content_store 	decision_ratio[22] 	0.0018674136321195
scalar tree_4_3_u09_r4_network.node[23].core_layer 	interests[23] 	12295
scalar tree_4_3_u09_r4_network.node[23].core_layer 	data[23] 	8666
scalar tree_4_3_u09_r4_network.node[23].content_store 	p_hit[23] 	0.29507930052867
scalar tree_4_3_u09_r4_network.node[23].content_store 	hits[23] 	3628
scalar tree_4_3_u09_r4_network.node[23].content_store 	misses[23] 	8667
scalar tree_4_3_u09_r4_network.node[23].content_store 	decision_yes[23] 	32
scalar tree_4_3_u09_r4_network.node[23].content_store 	decision_no[23] 	8634
scalar tree_4_3_u09_r4_network.node[23].content_store 	decision_ratio[23] 	0.003692591737826
scalar tree_4_3_u09_r4_network.node[24].core_layer 	interests[24] 	12571
scalar tree_4_3_u09_r4_network.node[24].core_layer 	data[24] 	8930
scalar tree_4_3_u09_r4_network.node[24].content_store 	p_hit[24] 	0.28963487391616
scalar tree_4_3_u09_r4_network.node[24].content_store 	hits[24] 	3641
scalar tree_4_3_u09_r4_network.node[24].content_store 	misses[24] 	8930
scalar tree_4_3_u09_r4_network.node[24].content_store 	decision_yes[24] 	54
scalar tree_4_3_u09_r4_network.node[24].content_store 	decision_no[24] 	8876
scalar tree_4_3_u09_r4_network.node[24].content_store 	decision_ratio[24] 	0.006047032474804
scalar tree_4_3_u09_r4_network.node[25].core_layer 	interests[25] 	12132
scalar tree_4_3_u09_r4_network.node[25].core_layer 	data[25] 	8588
scalar tree_4_3_u09_r4_network.node[25].content_store 	p_hit[25] 	0.29212001318826
scalar tree_4_3_u09_r4_network.node[25].content_store 	hits[25] 	3544
scalar tree_4_3_u09_r4_network.node[25].content_store 	misses[25] 	8588
scalar tree_4_3_u09_r4_network.node[25].content_store 	decision_yes[25] 	30
scalar tree_4_3_u09_r4_network.node[25].content_store 	decision_no[25] 	8558
scalar tree_4_3_u09_r4_network.node[25].content_store 	decision_ratio[25] 	0.0034932463903121
scalar tree_4_3_u09_r4_network.node[26].core_layer 	interests[26] 	12168
scalar tree_4_3_u09_r4_network.node[26].core_layer 	data[26] 	8567
scalar tree_4_3_u09_r4_network.node[26].content_store 	p_hit[26] 	0.29594017094017
scalar tree_4_3_u09_r4_network.node[26].content_store 	hits[26] 	3601
scalar tree_4_3_u09_r4_network.node[26].content_store 	misses[26] 	8567
scalar tree_4_3_u09_r4_network.node[26].content_store 	decision_yes[26] 	30
scalar tree_4_3_u09_r4_network.node[26].content_store 	decision_no[26] 	8537
scalar tree_4_3_u09_r4_network.node[26].content_store 	decision_ratio[26] 	0.0035018092681219
scalar tree_4_3_u09_r4_network.node[27].core_layer 	interests[27] 	12627
scalar tree_4_3_u09_r4_network.node[27].core_layer 	data[27] 	8902
scalar tree_4_3_u09_r4_network.node[27].content_store 	p_hit[27] 	0.29500277183812
scalar tree_4_3_u09_r4_network.node[27].content_store 	hits[27] 	3725
scalar tree_4_3_u09_r4_network.node[27].content_store 	misses[27] 	8902
scalar tree_4_3_u09_r4_network.node[27].content_store 	decision_yes[27] 	53
scalar tree_4_3_u09_r4_network.node[27].content_store 	decision_no[27] 	8849
scalar tree_4_3_u09_r4_network.node[27].content_store 	decision_ratio[27] 	0.0059537182655583
scalar tree_4_3_u09_r4_network.node[28].core_layer 	interests[28] 	12470
scalar tree_4_3_u09_r4_network.node[28].core_layer 	data[28] 	8754
scalar tree_4_3_u09_r4_network.node[28].content_store 	p_hit[28] 	0.29791499599038
scalar tree_4_3_u09_r4_network.node[28].content_store 	hits[28] 	3715
scalar tree_4_3_u09_r4_network.node[28].content_store 	misses[28] 	8755
scalar tree_4_3_u09_r4_network.node[28].content_store 	decision_yes[28] 	42
scalar tree_4_3_u09_r4_network.node[28].content_store 	decision_no[28] 	8712
scalar tree_4_3_u09_r4_network.node[28].content_store 	decision_ratio[28] 	0.0047978067169294
scalar tree_4_3_u09_r4_network.node[29].core_layer 	interests[29] 	12495
scalar tree_4_3_u09_r4_network.node[29].core_layer 	data[29] 	8769
scalar tree_4_3_u09_r4_network.node[29].content_store 	p_hit[29] 	0.29819927971188
scalar tree_4_3_u09_r4_network.node[29].content_store 	hits[29] 	3726
scalar tree_4_3_u09_r4_network.node[29].content_store 	misses[29] 	8769
scalar tree_4_3_u09_r4_network.node[29].content_store 	decision_yes[29] 	45
scalar tree_4_3_u09_r4_network.node[29].content_store 	decision_no[29] 	8724
scalar tree_4_3_u09_r4_network.node[29].content_store 	decision_ratio[29] 	0.0051317139924735
scalar tree_4_3_u09_r4_network.node[30].core_layer 	interests[30] 	12267
scalar tree_4_3_u09_r4_network.node[30].core_layer 	data[30] 	8673
scalar tree_4_3_u09_r4_network.node[30].content_store 	p_hit[30] 	0.29298116898997
scalar tree_4_3_u09_r4_network.node[30].content_store 	hits[30] 	3594
scalar tree_4_3_u09_r4_network.node[30].content_store 	misses[30] 	8673
scalar tree_4_3_u09_r4_network.node[30].content_store 	decision_yes[30] 	31
scalar tree_4_3_u09_r4_network.node[30].content_store 	decision_no[30] 	8642
scalar tree_4_3_u09_r4_network.node[30].content_store 	decision_ratio[30] 	0.0035743110803643
scalar tree_4_3_u09_r4_network.node[31].core_layer 	interests[31] 	12101
scalar tree_4_3_u09_r4_network.node[31].core_layer 	data[31] 	8530
scalar tree_4_3_u09_r4_network.node[31].content_store 	p_hit[31] 	0.29509957854723
scalar tree_4_3_u09_r4_network.node[31].content_store 	hits[31] 	3571
scalar tree_4_3_u09_r4_network.node[31].content_store 	misses[31] 	8530
scalar tree_4_3_u09_r4_network.node[31].content_store 	decision_yes[31] 	29
scalar tree_4_3_u09_r4_network.node[31].content_store 	decision_no[31] 	8501
scalar tree_4_3_u09_r4_network.node[31].content_store 	decision_ratio[31] 	0.0033997655334115
scalar tree_4_3_u09_r4_network.node[32].core_layer 	interests[32] 	12206
scalar tree_4_3_u09_r4_network.node[32].core_layer 	data[32] 	8626
scalar tree_4_3_u09_r4_network.node[32].content_store 	p_hit[32] 	0.29329837784696
scalar tree_4_3_u09_r4_network.node[32].content_store 	hits[32] 	3580
scalar tree_4_3_u09_r4_network.node[32].content_store 	misses[32] 	8626
scalar tree_4_3_u09_r4_network.node[32].content_store 	decision_yes[32] 	31
scalar tree_4_3_u09_r4_network.node[32].content_store 	decision_no[32] 	8595
scalar tree_4_3_u09_r4_network.node[32].content_store 	decision_ratio[32] 	0.0035937862276837
scalar tree_4_3_u09_r4_network.node[33].core_layer 	interests[33] 	12482
scalar tree_4_3_u09_r4_network.node[33].core_layer 	data[33] 	8794
scalar tree_4_3_u09_r4_network.node[33].content_store 	p_hit[33] 	0.2954654702772
scalar tree_4_3_u09_r4_network.node[33].content_store 	hits[33] 	3688
scalar tree_4_3_u09_r4_network.node[33].content_store 	misses[33] 	8794
scalar tree_4_3_u09_r4_network.node[33].content_store 	decision_yes[33] 	62
scalar tree_4_3_u09_r4_network.node[33].content_store 	decision_no[33] 	8732
scalar tree_4_3_u09_r4_network.node[33].content_store 	decision_ratio[33] 	0.0070502615419604
scalar tree_4_3_u09_r4_network.node[34].core_layer 	interests[34] 	12775
scalar tree_4_3_u09_r4_network.node[34].core_layer 	data[34] 	8994
scalar tree_4_3_u09_r4_network.node[34].content_store 	p_hit[34] 	0.2959686888454
scalar tree_4_3_u09_r4_network.node[34].content_store 	hits[34] 	3781
scalar tree_4_3_u09_r4_network.node[34].content_store 	misses[34] 	8994
scalar tree_4_3_u09_r4_network.node[34].content_store 	decision_yes[34] 	46
scalar tree_4_3_u09_r4_network.node[34].content_store 	decision_no[34] 	8948
scalar tree_4_3_u09_r4_network.node[34].content_store 	decision_ratio[34] 	0.0051145207916389
scalar tree_4_3_u09_r4_network.node[35].core_layer 	interests[35] 	12273
scalar tree_4_3_u09_r4_network.node[35].core_layer 	data[35] 	8750
scalar tree_4_3_u09_r4_network.node[35].content_store 	p_hit[35] 	0.28697140063554
scalar tree_4_3_u09_r4_network.node[35].content_store 	hits[35] 	3522
scalar tree_4_3_u09_r4_network.node[35].content_store 	misses[35] 	8751
scalar tree_4_3_u09_r4_network.node[35].content_store 	decision_yes[35] 	23
scalar tree_4_3_u09_r4_network.node[35].content_store 	decision_no[35] 	8727
scalar tree_4_3_u09_r4_network.node[35].content_store 	decision_ratio[35] 	0.0026285714285714
scalar tree_4_3_u09_r4_network.node[36].core_layer 	interests[36] 	12175
scalar tree_4_3_u09_r4_network.node[36].core_layer 	data[36] 	8612
scalar tree_4_3_u09_r4_network.node[36].content_store 	p_hit[36] 	0.29264887063655
scalar tree_4_3_u09_r4_network.node[36].content_store 	hits[36] 	3563
scalar tree_4_3_u09_r4_network.node[36].content_store 	misses[36] 	8612
scalar tree_4_3_u09_r4_network.node[36].content_store 	decision_yes[36] 	31
scalar tree_4_3_u09_r4_network.node[36].content_store 	decision_no[36] 	8581
scalar tree_4_3_u09_r4_network.node[36].content_store 	decision_ratio[36] 	0.0035996284254529
scalar tree_4_3_u09_r4_network.node[37].core_layer 	interests[37] 	12403
scalar tree_4_3_u09_r4_network.node[37].core_layer 	data[37] 	8678
scalar tree_4_3_u09_r4_network.node[37].content_store 	p_hit[37] 	0.30024993953076
scalar tree_4_3_u09_r4_network.node[37].content_store 	hits[37] 	3724
scalar tree_4_3_u09_r4_network.node[37].content_store 	misses[37] 	8679
scalar tree_4_3_u09_r4_network.node[37].content_store 	decision_yes[37] 	58
scalar tree_4_3_u09_r4_network.node[37].content_store 	decision_no[37] 	8620
scalar tree_4_3_u09_r4_network.node[37].content_store 	decision_ratio[37] 	0.0066835676423139
scalar tree_4_3_u09_r4_network.node[38].core_layer 	interests[38] 	12386
scalar tree_4_3_u09_r4_network.node[38].core_layer 	data[38] 	8725
scalar tree_4_3_u09_r4_network.node[38].content_store 	p_hit[38] 	0.29557564992734
scalar tree_4_3_u09_r4_network.node[38].content_store 	hits[38] 	3661
scalar tree_4_3_u09_r4_network.node[38].content_store 	misses[38] 	8725
scalar tree_4_3_u09_r4_network.node[38].content_store 	decision_yes[38] 	54
scalar tree_4_3_u09_r4_network.node[38].content_store 	decision_no[38] 	8671
scalar tree_4_3_u09_r4_network.node[38].content_store 	decision_ratio[38] 	0.006189111747851
scalar tree_4_3_u09_r4_network.node[39].core_layer 	interests[39] 	12007
scalar tree_4_3_u09_r4_network.node[39].core_layer 	data[39] 	8501
scalar tree_4_3_u09_r4_network.node[39].content_store 	p_hit[39] 	0.29199633547098
scalar tree_4_3_u09_r4_network.node[39].content_store 	hits[39] 	3506
scalar tree_4_3_u09_r4_network.node[39].content_store 	misses[39] 	8501
scalar tree_4_3_u09_r4_network.node[39].content_store 	decision_yes[39] 	42
scalar tree_4_3_u09_r4_network.node[39].content_store 	decision_no[39] 	8459
scalar tree_4_3_u09_r4_network.node[39].content_store 	decision_ratio[39] 	0.0049405952240913
scalar tree_4_3_u09_r4_network.client[13] 	hdistance[13] 	2.6187780922257
scalar tree_4_3_u09_r4_network.client[13] 	downloads[13] 	12014
scalar tree_4_3_u09_r4_network.client[13] 	avg_time[13] 	0.004069749604
scalar tree_4_3_u09_r4_network.client[14] 	hdistance[14] 	2.5860048547752
scalar tree_4_3_u09_r4_network.client[14] 	downloads[14] 	11947
scalar tree_4_3_u09_r4_network.client[14] 	avg_time[14] 	0.004017909483
scalar tree_4_3_u09_r4_network.client[15] 	hdistance[15] 	2.5796316359697
scalar tree_4_3_u09_r4_network.client[15] 	downloads[15] 	11999
scalar tree_4_3_u09_r4_network.client[15] 	avg_time[15] 	0.003991153189
scalar tree_4_3_u09_r4_network.client[16] 	hdistance[16] 	2.5592148488831
scalar tree_4_3_u09_r4_network.client[16] 	downloads[16] 	12176
scalar tree_4_3_u09_r4_network.client[16] 	avg_time[16] 	0.00396747397
scalar tree_4_3_u09_r4_network.client[17] 	hdistance[17] 	2.6058105263158
scalar tree_4_3_u09_r4_network.client[17] 	downloads[17] 	11875
scalar tree_4_3_u09_r4_network.client[17] 	avg_time[17] 	0.004051028594
scalar tree_4_3_u09_r4_network.client[18] 	hdistance[18] 	2.5632756437315
scalar tree_4_3_u09_r4_network.client[18] 	downloads[18] 	11845
scalar tree_4_3_u09_r4_network.client[18] 	avg_time[18] 	0.003973825642
scalar tree_4_3_u09_r4_network.client[19] 	hdistance[19] 	2.5961587274727
scalar tree_4_3_u09_r4_network.client[19] 	downloads[19] 	11819
scalar tree_4_3_u09_r4_network.client[19] 	avg_time[19] 	0.004018780354
scalar tree_4_3_u09_r4_network.client[20] 	hdistance[20] 	2.5821193706817
scalar tree_4_3_u09_r4_network.client[20] 	downloads[20] 	12013
scalar tree_4_3_u09_r4_network.client[20] 	avg_time[20] 	0.003997499693
scalar tree_4_3_u09_r4_network.client[21] 	hdistance[21] 	2.6173862600481
scalar tree_4_3_u09_r4_network.client[21] 	downloads[21] 	12067
scalar tree_4_3_u09_r4_network.client[21] 	avg_time[21] 	0.004062149976
scalar tree_4_3_u09_r4_network.client[22] 	hdistance[22] 	2.6394799054373
scalar tree_4_3_u09_r4_network.client[22] 	downloads[22] 	11844
scalar tree_4_3_u09_r4_network.client[22] 	avg_time[22] 	0.004099188663
scalar tree_4_3_u09_r4_network.client[23] 	hdistance[23] 	2.6278319898176
scalar tree_4_3_u09_r4_network.client[23] 	downloads[23] 	11785
scalar tree_4_3_u09_r4_network.client[23] 	avg_time[23] 	0.004069818986
scalar tree_4_3_u09_r4_network.client[24] 	hdistance[24] 	2.5989454605372
scalar tree_4_3_u09_r4_network.client[24] 	downloads[24] 	12138
scalar tree_4_3_u09_r4_network.client[24] 	avg_time[24] 	0.004026029353
scalar tree_4_3_u09_r4_network.client[25] 	hdistance[25] 	2.6264214046823
scalar tree_4_3_u09_r4_network.client[25] 	downloads[25] 	11960
scalar tree_4_3_u09_r4_network.client[25] 	avg_time[25] 	0.004069394995
scalar tree_4_3_u09_r4_network.client[26] 	hdistance[26] 	2.6144929953302
scalar tree_4_3_u09_r4_network.client[26] 	downloads[26] 	11992
scalar tree_4_3_u09_r4_network.client[26] 	avg_time[26] 	0.004047028371
scalar tree_4_3_u09_r4_network.client[27] 	hdistance[27] 	2.6061855670103
scalar tree_4_3_u09_r4_network.client[27] 	downloads[27] 	12125
scalar tree_4_3_u09_r4_network.client[27] 	avg_time[27] 	0.004035130997
scalar tree_4_3_u09_r4_network.client[28] 	hdistance[28] 	2.5824750830565
scalar tree_4_3_u09_r4_network.client[28] 	downloads[28] 	12040
scalar tree_4_3_u09_r4_network.client[28] 	avg_time[28] 	0.003995335576
scalar tree_4_3_u09_r4_network.client[29] 	hdistance[29] 	2.5968438538206
scalar tree_4_3_u09_r4_network.client[29] 	downloads[29] 	12040
scalar tree_4_3_u09_r4_network.client[29] 	avg_time[29] 	0.004014556494
scalar tree_4_3_u09_r4_network.client[30] 	hdistance[30] 	2.604587611792
scalar tree_4_3_u09_r4_network.client[30] 	downloads[30] 	12076
scalar tree_4_3_u09_r4_network.client[30] 	avg_time[30] 	0.004041732657
scalar tree_4_3_u09_r4_network.client[31] 	hdistance[31] 	2.603517926275
scalar tree_4_3_u09_r4_network.client[31] 	downloads[31] 	11882
scalar tree_4_3_u09_r4_network.client[31] 	avg_time[31] 	0.004044147425
scalar tree_4_3_u09_r4_network.client[32] 	hdistance[32] 	2.6086267311864
scalar tree_4_3_u09_r4_network.client[32] 	downloads[32] 	11986
scalar tree_4_3_u09_r4_network.client[32] 	avg_time[32] 	0.00405003332
scalar tree_4_3_u09_r4_network.client[33] 	hdistance[33] 	2.5652678719522
scalar tree_4_3_u09_r4_network.client[33] 	downloads[33] 	12058
scalar tree_4_3_u09_r4_network.client[33] 	avg_time[33] 	0.003982083554
scalar tree_4_3_u09_r4_network.client[34] 	hdistance[34] 	2.6062448644207
scalar tree_4_3_u09_r4_network.client[34] 	downloads[34] 	12170
scalar tree_4_3_u09_r4_network.client[34] 	avg_time[34] 	0.004043684282
scalar tree_4_3_u09_r4_network.client[35] 	hdistance[35] 	2.6107222267973
scalar tree_4_3_u09_r4_network.client[35] 	downloads[35] 	12143
scalar tree_4_3_u09_r4_network.client[35] 	avg_time[35] 	0.004057643101
scalar tree_4_3_u09_r4_network.client[36] 	hdistance[36] 	2.6132634072069
scalar tree_4_3_u09_r4_network.client[36] 	downloads[36] 	11822
scalar tree_4_3_u09_r4_network.client[36] 	avg_time[36] 	0.004038230873
scalar tree_4_3_u09_r4_network.client[37] 	hdistance[37] 	2.5688672922252
scalar tree_4_3_u09_r4_network.client[37] 	downloads[37] 	11936
scalar tree_4_3_u09_r4_network.client[37] 	avg_time[37] 	0.003984742983
scalar tree_4_3_u09_r4_network.client[38] 	hdistance[38] 	2.5961314959323
scalar tree_4_3_u09_r4_network.client[38] 	downloads[38] 	12046
scalar tree_4_3_u09_r4_network.client[38] 	avg_time[38] 	0.004006638185
scalar tree_4_3_u09_r4_network.client[39] 	hdistance[39] 	2.6466032494318
scalar tree_4_3_u09_r4_network.client[39] 	downloads[39] 	11879
scalar tree_4_3_u09_r4_network.client[39] 	avg_time[39] 	0.004078454827
