version 2
run General-581-20160901-14:16:24-8710
attr a 0.9
attr cd tfc
attr configname General
attr cr lru
attr datetime 20160901-14:16:24
attr experiment General
attr fsize 1
attr inifile hw5115/scenario_Y/omnetp.ini
attr iterationvars "$name=tree_4_3, $un=09, $rep=14, $cd=tfc, $cr=lru, $fsize=1, $a=0.9, $sl=nrr, $ttl=1000, $variance=0.05"
attr iterationvars2 "$name=tree_4_3, $un=09, $rep=14, $cd=tfc, $cr=lru, $fsize=1, $a=0.9, $sl=nrr, $ttl=1000, $variance=0.05, $repetition=0"
attr measurement "$name=tree_4_3, $un=09, $rep=14, $cd=tfc, $cr=lru, $fsize=1, $a=0.9, $sl=nrr, $ttl=1000, $variance=0.05"
attr name tree_4_3
attr network networks.${name}_u${un}_r${rep}_network
attr processid 8710
attr rep 14
attr repetition 0
attr replication #0
attr resultdir results
attr runnumber 581
attr seedset 14
attr sl nrr
attr ttl 1000
attr un 09
attr variance 0.05

scalar . 	a 	0.9
scalar . 	fsize 	1
scalar . 	rep 	14
scalar . 	ttl 	1000
scalar . 	un 	09
scalar . 	variance 	0.05
scalar tree_4_3_u09_r14_network.content_distribution 	repo-0 	0
scalar tree_4_3_u09_r14_network.content_distribution 	client-0 	13
scalar tree_4_3_u09_r14_network.content_distribution 	client-1 	14
scalar tree_4_3_u09_r14_network.content_distribution 	client-2 	15
scalar tree_4_3_u09_r14_network.content_distribution 	client-3 	16
scalar tree_4_3_u09_r14_network.content_distribution 	client-4 	17
scalar tree_4_3_u09_r14_network.content_distribution 	client-5 	18
scalar tree_4_3_u09_r14_network.content_distribution 	client-6 	19
scalar tree_4_3_u09_r14_network.content_distribution 	client-7 	20
scalar tree_4_3_u09_r14_network.content_distribution 	client-8 	21
scalar tree_4_3_u09_r14_network.content_distribution 	client-9 	22
scalar tree_4_3_u09_r14_network.content_distribution 	client-10 	23
scalar tree_4_3_u09_r14_network.content_distribution 	client-11 	24
scalar tree_4_3_u09_r14_network.content_distribution 	client-12 	25
scalar tree_4_3_u09_r14_network.content_distribution 	client-13 	26
scalar tree_4_3_u09_r14_network.content_distribution 	client-14 	27
scalar tree_4_3_u09_r14_network.content_distribution 	client-15 	28
scalar tree_4_3_u09_r14_network.content_distribution 	client-16 	29
scalar tree_4_3_u09_r14_network.content_distribution 	client-17 	30
scalar tree_4_3_u09_r14_network.content_distribution 	client-18 	31
scalar tree_4_3_u09_r14_network.content_distribution 	client-19 	32
scalar tree_4_3_u09_r14_network.content_distribution 	client-20 	33
scalar tree_4_3_u09_r14_network.content_distribution 	client-21 	34
scalar tree_4_3_u09_r14_network.content_distribution 	client-22 	35
scalar tree_4_3_u09_r14_network.content_distribution 	client-23 	36
scalar tree_4_3_u09_r14_network.content_distribution 	client-24 	37
scalar tree_4_3_u09_r14_network.content_distribution 	client-25 	38
scalar tree_4_3_u09_r14_network.content_distribution 	client-26 	39
scalar tree_4_3_u09_r14_network.content_distribution 	repo-0_card 	100000
scalar tree_4_3_u09_r14_network.content_distribution 	repo-0_price 	0
scalar tree_4_3_u09_r14_network.statistics 	stabilization_time 	2063.3
scalar tree_4_3_u09_r14_network.statistics 	p_hit 	0.23347505124681
scalar tree_4_3_u09_r14_network.statistics 	interests 	24386.275
scalar tree_4_3_u09_r14_network.statistics 	data 	16284.1
scalar tree_4_3_u09_r14_network.statistics 	hdistance 	2.5962889829536
scalar tree_4_3_u09_r14_network.statistics 	avg_time 	0.004019705135
scalar tree_4_3_u09_r14_network.statistics 	downloads 	324086
scalar tree_4_3_u09_r14_network.statistics 	total_cost 	0
scalar tree_4_3_u09_r14_network.statistics 	total_replicas 	100000
scalar tree_4_3_u09_r14_network.statistics 	inner_hit 	0.41355689539196
scalar tree_4_3_u09_r14_network.node[0].core_layer 	interests[0] 	193349
scalar tree_4_3_u09_r14_network.node[0].core_layer 	repo_load[0] 	190058
scalar tree_4_3_u09_r14_network.node[0].core_layer 	data[0] 	0
scalar tree_4_3_u09_r14_network.node[0].core_layer 	repo_int[0] 	190058
scalar tree_4_3_u09_r14_network.node[0].content_store 	p_hit[0] 	0.017021034502377
scalar tree_4_3_u09_r14_network.node[0].content_store 	hits[0] 	3291
scalar tree_4_3_u09_r14_network.node[0].content_store 	misses[0] 	190058
scalar tree_4_3_u09_r14_network.node[0].content_store 	decision_yes[0] 	937
scalar tree_4_3_u09_r14_network.node[0].content_store 	decision_no[0] 	189121
scalar tree_4_3_u09_r14_network.node[0].content_store 	decision_ratio[0] 	0.0049300739774174
scalar tree_4_3_u09_r14_network.node[1].core_layer 	interests[1] 	142229
scalar tree_4_3_u09_r14_network.node[1].core_layer 	data[1] 	138454
scalar tree_4_3_u09_r14_network.node[1].content_store 	p_hit[1] 	0.026541703871925
scalar tree_4_3_u09_r14_network.node[1].content_store 	hits[1] 	3775
scalar tree_4_3_u09_r14_network.node[1].content_store 	misses[1] 	138454
scalar tree_4_3_u09_r14_network.node[1].content_store 	decision_yes[1] 	116
scalar tree_4_3_u09_r14_network.node[1].content_store 	decision_no[1] 	138338
scalar tree_4_3_u09_r14_network.node[1].content_store 	decision_ratio[1] 	0.00083782339260693
scalar tree_4_3_u09_r14_network.node[2].core_layer 	interests[2] 	31046
scalar tree_4_3_u09_r14_network.node[2].core_layer 	data[2] 	29586
scalar tree_4_3_u09_r14_network.node[2].content_store 	p_hit[2] 	0.047026992205115
scalar tree_4_3_u09_r14_network.node[2].content_store 	hits[2] 	1460
scalar tree_4_3_u09_r14_network.node[2].content_store 	misses[2] 	29586
scalar tree_4_3_u09_r14_network.node[2].content_store 	decision_yes[2] 	31
scalar tree_4_3_u09_r14_network.node[2].content_store 	decision_no[2] 	29555
scalar tree_4_3_u09_r14_network.node[2].content_store 	decision_ratio[2] 	0.0010477928750084
scalar tree_4_3_u09_r14_network.node[3].core_layer 	interests[3] 	34582
scalar tree_4_3_u09_r14_network.node[3].core_layer 	data[3] 	31430
scalar tree_4_3_u09_r14_network.node[3].content_store 	p_hit[3] 	0.091145682725117
scalar tree_4_3_u09_r14_network.node[3].content_store 	hits[3] 	3152
scalar tree_4_3_u09_r14_network.node[3].content_store 	misses[3] 	31430
scalar tree_4_3_u09_r14_network.node[3].content_store 	decision_yes[3] 	82
scalar tree_4_3_u09_r14_network.node[3].content_store 	decision_no[3] 	31348
scalar tree_4_3_u09_r14_network.node[3].content_store 	decision_ratio[3] 	0.00260897231944
scalar tree_4_3_u09_r14_network.node[4].core_layer 	interests[4] 	41587
scalar tree_4_3_u09_r14_network.node[4].core_layer 	data[4] 	39165
scalar tree_4_3_u09_r14_network.node[4].content_store 	p_hit[4] 	0.058215307668262
scalar tree_4_3_u09_r14_network.node[4].content_store 	hits[4] 	2421
scalar tree_4_3_u09_r14_network.node[4].content_store 	misses[4] 	39166
scalar tree_4_3_u09_r14_network.node[4].content_store 	decision_yes[4] 	80
scalar tree_4_3_u09_r14_network.node[4].content_store 	decision_no[4] 	39085
scalar tree_4_3_u09_r14_network.node[4].content_store 	decision_ratio[4] 	0.0020426401123452
scalar tree_4_3_u09_r14_network.node[5].core_layer 	interests[5] 	26252
scalar tree_4_3_u09_r14_network.node[5].core_layer 	data[5] 	23842
scalar tree_4_3_u09_r14_network.node[5].content_store 	p_hit[5] 	0.091802529331099
scalar tree_4_3_u09_r14_network.node[5].content_store 	hits[5] 	2410
scalar tree_4_3_u09_r14_network.node[5].content_store 	misses[5] 	23842
scalar tree_4_3_u09_r14_network.node[5].content_store 	decision_yes[5] 	73
scalar tree_4_3_u09_r14_network.node[5].content_store 	decision_no[5] 	23769
scalar tree_4_3_u09_r14_network.node[5].content_store 	decision_ratio[5] 	0.0030618236725107
scalar tree_4_3_u09_r14_network.node[6].core_layer 	interests[6] 	12497
scalar tree_4_3_u09_r14_network.node[6].core_layer 	data[6] 	9572
scalar tree_4_3_u09_r14_network.node[6].content_store 	p_hit[6] 	0.23405617348164
scalar tree_4_3_u09_r14_network.node[6].content_store 	hits[6] 	2925
scalar tree_4_3_u09_r14_network.node[6].content_store 	misses[6] 	9572
scalar tree_4_3_u09_r14_network.node[6].content_store 	decision_yes[6] 	173
scalar tree_4_3_u09_r14_network.node[6].content_store 	decision_no[6] 	9399
scalar tree_4_3_u09_r14_network.node[6].content_store 	decision_ratio[6] 	0.01807354784789
scalar tree_4_3_u09_r14_network.node[7].core_layer 	interests[7] 	42163
scalar tree_4_3_u09_r14_network.node[7].core_layer 	data[7] 	39446
scalar tree_4_3_u09_r14_network.node[7].content_store 	p_hit[7] 	0.064416668643123
scalar tree_4_3_u09_r14_network.node[7].content_store 	hits[7] 	2716
scalar tree_4_3_u09_r14_network.node[7].content_store 	misses[7] 	39447
scalar tree_4_3_u09_r14_network.node[7].content_store 	decision_yes[7] 	112
scalar tree_4_3_u09_r14_network.node[7].content_store 	decision_no[7] 	39334
scalar tree_4_3_u09_r14_network.node[7].content_store 	decision_ratio[7] 	0.002839324646352
scalar tree_4_3_u09_r14_network.node[8].core_layer 	interests[8] 	25440
scalar tree_4_3_u09_r14_network.node[8].core_layer 	data[8] 	23364
scalar tree_4_3_u09_r14_network.node[8].content_store 	p_hit[8] 	0.081564465408805
scalar tree_4_3_u09_r14_network.node[8].content_store 	hits[8] 	2075
scalar tree_4_3_u09_r14_network.node[8].content_store 	misses[8] 	23365
scalar tree_4_3_u09_r14_network.node[8].content_store 	decision_yes[8] 	51
scalar tree_4_3_u09_r14_network.node[8].content_store 	decision_no[8] 	23313
scalar tree_4_3_u09_r14_network.node[8].content_store 	decision_ratio[8] 	0.0021828454031844
scalar tree_4_3_u09_r14_network.node[9].core_layer 	interests[9] 	12258
scalar tree_4_3_u09_r14_network.node[9].core_layer 	data[9] 	9783
scalar tree_4_3_u09_r14_network.node[9].content_store 	p_hit[9] 	0.20190895741557
scalar tree_4_3_u09_r14_network.node[9].content_store 	hits[9] 	2475
scalar tree_4_3_u09_r14_network.node[9].content_store 	misses[9] 	9783
scalar tree_4_3_u09_r14_network.node[9].content_store 	decision_yes[9] 	169
scalar tree_4_3_u09_r14_network.node[9].content_store 	decision_no[9] 	9614
scalar tree_4_3_u09_r14_network.node[9].content_store 	decision_ratio[9] 	0.017274864560973
scalar tree_4_3_u09_r14_network.node[10].core_layer 	interests[10] 	42634
scalar tree_4_3_u09_r14_network.node[10].core_layer 	data[10] 	39577
scalar tree_4_3_u09_r14_network.node[10].content_store 	p_hit[10] 	0.071726790824225
scalar tree_4_3_u09_r14_network.node[10].content_store 	hits[10] 	3058
scalar tree_4_3_u09_r14_network.node[10].content_store 	misses[10] 	39576
scalar tree_4_3_u09_r14_network.node[10].content_store 	decision_yes[10] 	110
scalar tree_4_3_u09_r14_network.node[10].content_store 	decision_no[10] 	39467
scalar tree_4_3_u09_r14_network.node[10].content_store 	decision_ratio[10] 	0.0027793920711524
scalar tree_4_3_u09_r14_network.node[11].core_layer 	interests[11] 	26513
scalar tree_4_3_u09_r14_network.node[11].core_layer 	data[11] 	24175
scalar tree_4_3_u09_r14_network.node[11].content_store 	p_hit[11] 	0.088183155433184
scalar tree_4_3_u09_r14_network.node[11].content_store 	hits[11] 	2338
scalar tree_4_3_u09_r14_network.node[11].content_store 	misses[11] 	24175
scalar tree_4_3_u09_r14_network.node[11].content_store 	decision_yes[11] 	70
scalar tree_4_3_u09_r14_network.node[11].content_store 	decision_no[11] 	24105
scalar tree_4_3_u09_r14_network.node[11].content_store 	decision_ratio[11] 	0.0028955532574974
scalar tree_4_3_u09_r14_network.node[12].core_layer 	interests[12] 	11074
scalar tree_4_3_u09_r14_network.node[12].core_layer 	data[12] 	8673
scalar tree_4_3_u09_r14_network.node[12].content_store 	p_hit[12] 	0.21681415929204
scalar tree_4_3_u09_r14_network.node[12].content_store 	hits[12] 	2401
scalar tree_4_3_u09_r14_network.node[12].content_store 	misses[12] 	8673
scalar tree_4_3_u09_r14_network.node[12].content_store 	decision_yes[12] 	62
scalar tree_4_3_u09_r14_network.node[12].content_store 	decision_no[12] 	8611
scalar tree_4_3_u09_r14_network.node[12].content_store 	decision_ratio[12] 	0.0071486221607287
scalar tree_4_3_u09_r14_network.node[13].core_layer 	interests[13] 	11959
scalar tree_4_3_u09_r14_network.node[13].core_layer 	data[13] 	8479
scalar tree_4_3_u09_r14_network.node[13].content_store 	p_hit[13] 	0.29091061125512
scalar tree_4_3_u09_r14_network.node[13].content_store 	hits[13] 	3479
scalar tree_4_3_u09_r14_network.node[13].content_store 	misses[13] 	8480
scalar tree_4_3_u09_r14_network.node[13].content_store 	decision_yes[13] 	22
scalar tree_4_3_u09_r14_network.node[13].content_store 	decision_no[13] 	8457
scalar tree_4_3_u09_r14_network.node[13].content_store 	decision_ratio[13] 	0.0025946455949994
scalar tree_4_3_u09_r14_network.node[14].core_layer 	interests[14] 	12490
scalar tree_4_3_u09_r14_network.node[14].core_layer 	data[14] 	8723
scalar tree_4_3_u09_r14_network.node[14].content_store 	p_hit[14] 	0.30160128102482
scalar tree_4_3_u09_r14_network.node[14].content_store 	hits[14] 	3767
scalar tree_4_3_u09_r14_network.node[14].content_store 	misses[14] 	8723
scalar tree_4_3_u09_r14_network.node[14].content_store 	decision_yes[14] 	40
scalar tree_4_3_u09_r14_network.node[14].content_store 	decision_no[14] 	8683
scalar tree_4_3_u09_r14_network.node[14].content_store 	decision_ratio[14] 	0.0045855783560702
scalar tree_4_3_u09_r14_network.node[15].core_layer 	interests[15] 	12358
scalar tree_4_3_u09_r14_network.node[15].core_layer 	data[15] 	8593
scalar tree_4_3_u09_r14_network.node[15].content_store 	p_hit[15] 	0.30466094837352
scalar tree_4_3_u09_r14_network.node[15].content_store 	hits[15] 	3765
scalar tree_4_3_u09_r14_network.node[15].content_store 	misses[15] 	8593
scalar tree_4_3_u09_r14_network.node[15].content_store 	decision_yes[15] 	47
scalar tree_4_3_u09_r14_network.node[15].content_store 	decision_no[15] 	8546
scalar tree_4_3_u09_r14_network.node[15].content_store 	decision_ratio[15] 	0.0054695682532294
scalar tree_4_3_u09_r14_network.node[16].core_layer 	interests[16] 	12589
scalar tree_4_3_u09_r14_network.node[16].core_layer 	data[16] 	8831
scalar tree_4_3_u09_r14_network.node[16].content_store 	p_hit[16] 	0.29851457621733
scalar tree_4_3_u09_r14_network.node[16].content_store 	hits[16] 	3758
scalar tree_4_3_u09_r14_network.node[16].content_store 	misses[16] 	8831
scalar tree_4_3_u09_r14_network.node[16].content_store 	decision_yes[16] 	43
scalar tree_4_3_u09_r14_network.node[16].content_store 	decision_no[16] 	8788
scalar tree_4_3_u09_r14_network.node[16].content_store 	decision_ratio[16] 	0.0048692107349111
scalar tree_4_3_u09_r14_network.node[17].core_layer 	interests[17] 	12160
scalar tree_4_3_u09_r14_network.node[17].core_layer 	data[17] 	8613
scalar tree_4_3_u09_r14_network.node[17].content_store 	p_hit[17] 	0.29169407894737
scalar tree_4_3_u09_r14_network.node[17].content_store 	hits[17] 	3547
scalar tree_4_3_u09_r14_network.node[17].content_store 	misses[17] 	8613
scalar tree_4_3_u09_r14_network.node[17].content_store 	decision_yes[17] 	20
scalar tree_4_3_u09_r14_network.node[17].content_store 	decision_no[17] 	8593
scalar tree_4_3_u09_r14_network.node[17].content_store 	decision_ratio[17] 	0.0023220712875885
scalar tree_4_3_u09_r14_network.node[18].core_layer 	interests[18] 	12477
scalar tree_4_3_u09_r14_network.node[18].core_layer 	data[18] 	8699
scalar tree_4_3_u09_r14_network.node[18].content_store 	p_hit[18] 	0.30279714675002
scalar tree_4_3_u09_r14_network.node[18].content_store 	hits[18] 	3778
scalar tree_4_3_u09_r14_network.node[18].content_store 	misses[18] 	8699
scalar tree_4_3_u09_r14_network.node[18].content_store 	decision_yes[18] 	32
scalar tree_4_3_u09_r14_network.node[18].content_store 	decision_no[18] 	8667
scalar tree_4_3_u09_r14_network.node[18].content_store 	decision_ratio[18] 	0.0036785837452581
scalar tree_4_3_u09_r14_network.node[19].core_layer 	interests[19] 	12695
scalar tree_4_3_u09_r14_network.node[19].core_layer 	data[19] 	8858
scalar tree_4_3_u09_r14_network.node[19].content_store 	p_hit[19] 	0.30224497833793
scalar tree_4_3_u09_r14_network.node[19].content_store 	hits[19] 	3837
scalar tree_4_3_u09_r14_network.node[19].content_store 	misses[19] 	8858
scalar tree_4_3_u09_r14_network.node[19].content_store 	decision_yes[19] 	45
scalar tree_4_3_u09_r14_network.node[19].content_store 	decision_no[19] 	8813
scalar tree_4_3_u09_r14_network.node[19].content_store 	decision_ratio[19] 	0.005080153533529
scalar tree_4_3_u09_r14_network.node[20].core_layer 	interests[20] 	12424
scalar tree_4_3_u09_r14_network.node[20].core_layer 	data[20] 	8752
scalar tree_4_3_u09_r14_network.node[20].content_store 	p_hit[20] 	0.29555698647778
scalar tree_4_3_u09_r14_network.node[20].content_store 	hits[20] 	3672
scalar tree_4_3_u09_r14_network.node[20].content_store 	misses[20] 	8752
scalar tree_4_3_u09_r14_network.node[20].content_store 	decision_yes[20] 	39
scalar tree_4_3_u09_r14_network.node[20].content_store 	decision_no[20] 	8713
scalar tree_4_3_u09_r14_network.node[20].content_store 	decision_ratio[20] 	0.0044561243144424
scalar tree_4_3_u09_r14_network.node[21].core_layer 	interests[21] 	12218
scalar tree_4_3_u09_r14_network.node[21].core_layer 	data[21] 	8534
scalar tree_4_3_u09_r14_network.node[21].content_store 	p_hit[21] 	0.30144049762645
scalar tree_4_3_u09_r14_network.node[21].content_store 	hits[21] 	3683
scalar tree_4_3_u09_r14_network.node[21].content_store 	misses[21] 	8535
scalar tree_4_3_u09_r14_network.node[21].content_store 	decision_yes[21] 	17
scalar tree_4_3_u09_r14_network.node[21].content_store 	decision_no[21] 	8517
scalar tree_4_3_u09_r14_network.node[21].content_store 	decision_ratio[21] 	0.00199203187251
scalar tree_4_3_u09_r14_network.node[22].core_layer 	interests[22] 	12346
scalar tree_4_3_u09_r14_network.node[22].core_layer 	data[22] 	8722
scalar tree_4_3_u09_r14_network.node[22].content_store 	p_hit[22] 	0.29353636805443
scalar tree_4_3_u09_r14_network.node[22].content_store 	hits[22] 	3624
scalar tree_4_3_u09_r14_network.node[22].content_store 	misses[22] 	8722
scalar tree_4_3_u09_r14_network.node[22].content_store 	decision_yes[22] 	26
scalar tree_4_3_u09_r14_network.node[22].content_store 	decision_no[22] 	8696
scalar tree_4_3_u09_r14_network.node[22].content_store 	decision_ratio[22] 	0.0029809676679661
scalar tree_4_3_u09_r14_network.node[23].core_layer 	interests[23] 	12405
scalar tree_4_3_u09_r14_network.node[23].core_layer 	data[23] 	8628
scalar tree_4_3_u09_r14_network.node[23].content_store 	p_hit[23] 	0.30447400241838
scalar tree_4_3_u09_r14_network.node[23].content_store 	hits[23] 	3777
scalar tree_4_3_u09_r14_network.node[23].content_store 	misses[23] 	8628
scalar tree_4_3_u09_r14_network.node[23].content_store 	decision_yes[23] 	41
scalar tree_4_3_u09_r14_network.node[23].content_store 	decision_no[23] 	8587
scalar tree_4_3_u09_r14_network.node[23].content_store 	decision_ratio[23] 	0.0047519703291609
scalar tree_4_3_u09_r14_network.node[24].core_layer 	interests[24] 	12489
scalar tree_4_3_u09_r14_network.node[24].core_layer 	data[24] 	8688
scalar tree_4_3_u09_r14_network.node[24].content_store 	p_hit[24] 	0.30434782608696
scalar tree_4_3_u09_r14_network.node[24].content_store 	hits[24] 	3801
scalar tree_4_3_u09_r14_network.node[24].content_store 	misses[24] 	8688
scalar tree_4_3_u09_r14_network.node[24].content_store 	decision_yes[24] 	33
scalar tree_4_3_u09_r14_network.node[24].content_store 	decision_no[24] 	8655
scalar tree_4_3_u09_r14_network.node[24].content_store 	decision_ratio[24] 	0.0037983425414365
scalar tree_4_3_u09_r14_network.node[25].core_layer 	interests[25] 	12477
scalar tree_4_3_u09_r14_network.node[25].core_layer 	data[25] 	8699
scalar tree_4_3_u09_r14_network.node[25].content_store 	p_hit[25] 	0.30271699927867
scalar tree_4_3_u09_r14_network.node[25].content_store 	hits[25] 	3777
scalar tree_4_3_u09_r14_network.node[25].content_store 	misses[25] 	8700
scalar tree_4_3_u09_r14_network.node[25].content_store 	decision_yes[25] 	46
scalar tree_4_3_u09_r14_network.node[25].content_store 	decision_no[25] 	8653
scalar tree_4_3_u09_r14_network.node[25].content_store 	decision_ratio[25] 	0.0052879641338085
scalar tree_4_3_u09_r14_network.node[26].core_layer 	interests[26] 	12047
scalar tree_4_3_u09_r14_network.node[26].core_layer 	data[26] 	8575
scalar tree_4_3_u09_r14_network.node[26].content_store 	p_hit[26] 	0.28820453224869
scalar tree_4_3_u09_r14_network.node[26].content_store 	hits[26] 	3472
scalar tree_4_3_u09_r14_network.node[26].content_store 	misses[26] 	8575
scalar tree_4_3_u09_r14_network.node[26].content_store 	decision_yes[26] 	26
scalar tree_4_3_u09_r14_network.node[26].content_store 	decision_no[26] 	8549
scalar tree_4_3_u09_r14_network.node[26].content_store 	decision_ratio[26] 	0.0030320699708455
scalar tree_4_3_u09_r14_network.node[27].core_layer 	interests[27] 	12434
scalar tree_4_3_u09_r14_network.node[27].core_layer 	data[27] 	8675
scalar tree_4_3_u09_r14_network.node[27].content_store 	p_hit[27] 	0.30223580505067
scalar tree_4_3_u09_r14_network.node[27].content_store 	hits[27] 	3758
scalar tree_4_3_u09_r14_network.node[27].content_store 	misses[27] 	8676
scalar tree_4_3_u09_r14_network.node[27].content_store 	decision_yes[27] 	47
scalar tree_4_3_u09_r14_network.node[27].content_store 	decision_no[27] 	8628
scalar tree_4_3_u09_r14_network.node[27].content_store 	decision_ratio[27] 	0.0054178674351585
scalar tree_4_3_u09_r14_network.node[28].core_layer 	interests[28] 	12626
scalar tree_4_3_u09_r14_network.node[28].core_layer 	data[28] 	8772
scalar tree_4_3_u09_r14_network.node[28].content_store 	p_hit[28] 	0.3052431490575
scalar tree_4_3_u09_r14_network.node[28].content_store 	hits[28] 	3854
scalar tree_4_3_u09_r14_network.node[28].content_store 	misses[28] 	8772
scalar tree_4_3_u09_r14_network.node[28].content_store 	decision_yes[28] 	32
scalar tree_4_3_u09_r14_network.node[28].content_store 	decision_no[28] 	8740
scalar tree_4_3_u09_r14_network.node[28].content_store 	decision_ratio[28] 	0.0036479708162335
scalar tree_4_3_u09_r14_network.node[29].core_layer 	interests[29] 	12238
scalar tree_4_3_u09_r14_network.node[29].core_layer 	data[29] 	8502
scalar tree_4_3_u09_r14_network.node[29].content_store 	p_hit[29] 	0.3052786403007
scalar tree_4_3_u09_r14_network.node[29].content_store 	hits[29] 	3736
scalar tree_4_3_u09_r14_network.node[29].content_store 	misses[29] 	8502
scalar tree_4_3_u09_r14_network.node[29].content_store 	decision_yes[29] 	41
scalar tree_4_3_u09_r14_network.node[29].content_store 	decision_no[29] 	8461
scalar tree_4_3_u09_r14_network.node[29].content_store 	decision_ratio[29] 	0.0048223947306516
scalar tree_4_3_u09_r14_network.node[30].core_layer 	interests[30] 	12322
scalar tree_4_3_u09_r14_network.node[30].core_layer 	data[30] 	8813
scalar tree_4_3_u09_r14_network.node[30].content_store 	p_hit[30] 	0.28477519883136
scalar tree_4_3_u09_r14_network.node[30].content_store 	hits[30] 	3509
scalar tree_4_3_u09_r14_network.node[30].content_store 	misses[30] 	8813
scalar tree_4_3_u09_r14_network.node[30].content_store 	decision_yes[30] 	23
scalar tree_4_3_u09_r14_network.node[30].content_store 	decision_no[30] 	8790
scalar tree_4_3_u09_r14_network.node[30].content_store 	decision_ratio[30] 	0.002609781005333
scalar tree_4_3_u09_r14_network.node[31].core_layer 	interests[31] 	12136
scalar tree_4_3_u09_r14_network.node[31].core_layer 	data[31] 	8647
scalar tree_4_3_u09_r14_network.node[31].content_store 	p_hit[31] 	0.28749176005274
scalar tree_4_3_u09_r14_network.node[31].content_store 	hits[31] 	3489
scalar tree_4_3_u09_r14_network.node[31].content_store 	misses[31] 	8647
scalar tree_4_3_u09_r14_network.node[31].content_store 	decision_yes[31] 	20
scalar tree_4_3_u09_r14_network.node[31].content_store 	decision_no[31] 	8627
scalar tree_4_3_u09_r14_network.node[31].content_store 	decision_ratio[31] 	0.0023129409043599
scalar tree_4_3_u09_r14_network.node[32].core_layer 	interests[32] 	12391
scalar tree_4_3_u09_r14_network.node[32].core_layer 	data[32] 	8746
scalar tree_4_3_u09_r14_network.node[32].content_store 	p_hit[32] 	0.29424582358163
scalar tree_4_3_u09_r14_network.node[32].content_store 	hits[32] 	3646
scalar tree_4_3_u09_r14_network.node[32].content_store 	misses[32] 	8745
scalar tree_4_3_u09_r14_network.node[32].content_store 	decision_yes[32] 	42
scalar tree_4_3_u09_r14_network.node[32].content_store 	decision_no[32] 	8704
scalar tree_4_3_u09_r14_network.node[32].content_store 	decision_ratio[32] 	0.0048021952892751
scalar tree_4_3_u09_r14_network.node[33].core_layer 	interests[33] 	12254
scalar tree_4_3_u09_r14_network.node[33].core_layer 	data[33] 	8441
scalar tree_4_3_u09_r14_network.node[33].content_store 	p_hit[33] 	0.31124530765464
scalar tree_4_3_u09_r14_network.node[33].content_store 	hits[33] 	3814
scalar tree_4_3_u09_r14_network.node[33].content_store 	misses[33] 	8440
scalar tree_4_3_u09_r14_network.node[33].content_store 	decision_yes[33] 	33
scalar tree_4_3_u09_r14_network.node[33].content_store 	decision_no[33] 	8408
scalar tree_4_3_u09_r14_network.node[33].content_store 	decision_ratio[33] 	0.0039094893969909
scalar tree_4_3_u09_r14_network.node[34].core_layer 	interests[34] 	12528
scalar tree_4_3_u09_r14_network.node[34].core_layer 	data[34] 	8679
scalar tree_4_3_u09_r14_network.node[34].content_store 	p_hit[34] 	0.30723180076628
scalar tree_4_3_u09_r14_network.node[34].content_store 	hits[34] 	3849
scalar tree_4_3_u09_r14_network.node[34].content_store 	misses[34] 	8679
scalar tree_4_3_u09_r14_network.node[34].content_store 	decision_yes[34] 	43
scalar tree_4_3_u09_r14_network.node[34].content_store 	decision_no[34] 	8636
scalar tree_4_3_u09_r14_network.node[34].content_store 	decision_ratio[34] 	0.0049544878442217
scalar tree_4_3_u09_r14_network.node[35].core_layer 	interests[35] 	11970
scalar tree_4_3_u09_r14_network.node[35].core_layer 	data[35] 	8470
scalar tree_4_3_u09_r14_network.node[35].content_store 	p_hit[35] 	0.29239766081871
scalar tree_4_3_u09_r14_network.node[35].content_store 	hits[35] 	3500
scalar tree_4_3_u09_r14_network.node[35].content_store 	misses[35] 	8470
scalar tree_4_3_u09_r14_network.node[35].content_store 	decision_yes[35] 	29
scalar tree_4_3_u09_r14_network.node[35].content_store 	decision_no[35] 	8441
scalar tree_4_3_u09_r14_network.node[35].content_store 	decision_ratio[35] 	0.0034238488783943
scalar tree_4_3_u09_r14_network.node[36].core_layer 	interests[36] 	12599
scalar tree_4_3_u09_r14_network.node[36].core_layer 	data[36] 	8852
scalar tree_4_3_u09_r14_network.node[36].content_store 	p_hit[36] 	0.29740455591714
scalar tree_4_3_u09_r14_network.node[36].content_store 	hits[36] 	3747
scalar tree_4_3_u09_r14_network.node[36].content_store 	misses[36] 	8852
scalar tree_4_3_u09_r14_network.node[36].content_store 	decision_yes[36] 	48
scalar tree_4_3_u09_r14_network.node[36].content_store 	decision_no[36] 	8804
scalar tree_4_3_u09_r14_network.node[36].content_store 	decision_ratio[36] 	0.0054225033890646
scalar tree_4_3_u09_r14_network.node[37].core_layer 	interests[37] 	12591
scalar tree_4_3_u09_r14_network.node[37].core_layer 	data[37] 	8896
scalar tree_4_3_u09_r14_network.node[37].content_store 	p_hit[37] 	0.2935430069097
scalar tree_4_3_u09_r14_network.node[37].content_store 	hits[37] 	3696
scalar tree_4_3_u09_r14_network.node[37].content_store 	misses[37] 	8895
scalar tree_4_3_u09_r14_network.node[37].content_store 	decision_yes[37] 	43
scalar tree_4_3_u09_r14_network.node[37].content_store 	decision_no[37] 	8853
scalar tree_4_3_u09_r14_network.node[37].content_store 	decision_ratio[37] 	0.0048336330935252
scalar tree_4_3_u09_r14_network.node[38].core_layer 	interests[38] 	12328
scalar tree_4_3_u09_r14_network.node[38].core_layer 	data[38] 	8729
scalar tree_4_3_u09_r14_network.node[38].content_store 	p_hit[38] 	0.29193705386113
scalar tree_4_3_u09_r14_network.node[38].content_store 	hits[38] 	3599
scalar tree_4_3_u09_r14_network.node[38].content_store 	misses[38] 	8729
scalar tree_4_3_u09_r14_network.node[38].content_store 	decision_yes[38] 	55
scalar tree_4_3_u09_r14_network.node[38].content_store 	decision_no[38] 	8674
scalar tree_4_3_u09_r14_network.node[38].content_store 	decision_ratio[38] 	0.006300836292817
scalar tree_4_3_u09_r14_network.node[39].core_layer 	interests[39] 	12276
scalar tree_4_3_u09_r14_network.node[39].core_layer 	data[39] 	8681
scalar tree_4_3_u09_r14_network.node[39].content_store 	p_hit[39] 	0.29284783317041
scalar tree_4_3_u09_r14_network.node[39].content_store 	hits[39] 	3595
scalar tree_4_3_u09_r14_network.node[39].content_store 	misses[39] 	8681
scalar tree_4_3_u09_r14_network.node[39].content_store 	decision_yes[39] 	23
scalar tree_4_3_u09_r14_network.node[39].content_store 	decision_no[39] 	8658
scalar tree_4_3_u09_r14_network.node[39].content_store 	decision_ratio[39] 	0.0026494643474254
scalar tree_4_3_u09_r14_network.client[13] 	hdistance[13] 	2.633452259599
scalar tree_4_3_u09_r14_network.client[13] 	downloads[13] 	11772
scalar tree_4_3_u09_r14_network.client[13] 	avg_time[13] 	0.004086643318
scalar tree_4_3_u09_r14_network.client[14] 	hdistance[14] 	2.6058091286307
scalar tree_4_3_u09_r14_network.client[14] 	downloads[14] 	12050
scalar tree_4_3_u09_r14_network.client[14] 	avg_time[14] 	0.004025391208
scalar tree_4_3_u09_r14_network.client[15] 	hdistance[15] 	2.565999493286
scalar tree_4_3_u09_r14_network.client[15] 	downloads[15] 	11841
scalar tree_4_3_u09_r14_network.client[15] 	avg_time[15] 	0.003977363803
scalar tree_4_3_u09_r14_network.client[16] 	hdistance[16] 	2.6046818331685
scalar tree_4_3_u09_r14_network.client[16] 	downloads[16] 	12132
scalar tree_4_3_u09_r14_network.client[16] 	avg_time[16] 	0.004026373502
scalar tree_4_3_u09_r14_network.client[17] 	hdistance[17] 	2.6352715441729
scalar tree_4_3_u09_r14_network.client[17] 	downloads[17] 	11987
scalar tree_4_3_u09_r14_network.client[17] 	avg_time[17] 	0.004088592952
scalar tree_4_3_u09_r14_network.client[18] 	hdistance[18] 	2.5784730913642
scalar tree_4_3_u09_r14_network.client[18] 	downloads[18] 	11985
scalar tree_4_3_u09_r14_network.client[18] 	avg_time[18] 	0.003991319497
scalar tree_4_3_u09_r14_network.client[19] 	hdistance[19] 	2.5869815668203
scalar tree_4_3_u09_r14_network.client[19] 	downloads[19] 	12152
scalar tree_4_3_u09_r14_network.client[19] 	avg_time[19] 	0.004006415656
scalar tree_4_3_u09_r14_network.client[20] 	hdistance[20] 	2.5902881892387
scalar tree_4_3_u09_r14_network.client[20] 	downloads[20] 	12006
scalar tree_4_3_u09_r14_network.client[20] 	avg_time[20] 	0.004013990021
scalar tree_4_3_u09_r14_network.client[21] 	hdistance[21] 	2.5781679008237
scalar tree_4_3_u09_r14_network.client[21] 	downloads[21] 	12019
scalar tree_4_3_u09_r14_network.client[21] 	avg_time[21] 	0.004002711729
scalar tree_4_3_u09_r14_network.client[22] 	hdistance[22] 	2.5935621964271
scalar tree_4_3_u09_r14_network.client[22] 	downloads[22] 	12147
scalar tree_4_3_u09_r14_network.client[22] 	avg_time[22] 	0.004039183567
scalar tree_4_3_u09_r14_network.client[23] 	hdistance[23] 	2.5697596795728
scalar tree_4_3_u09_r14_network.client[23] 	downloads[23] 	11984
scalar tree_4_3_u09_r14_network.client[23] 	avg_time[23] 	0.003978301425
scalar tree_4_3_u09_r14_network.client[24] 	hdistance[24] 	2.5710232014689
scalar tree_4_3_u09_r14_network.client[24] 	downloads[24] 	11982
scalar tree_4_3_u09_r14_network.client[24] 	avg_time[24] 	0.003986777122
scalar tree_4_3_u09_r14_network.client[25] 	hdistance[25] 	2.5736719011026
scalar tree_4_3_u09_r14_network.client[25] 	downloads[25] 	11972
scalar tree_4_3_u09_r14_network.client[25] 	avg_time[25] 	0.003995811087
scalar tree_4_3_u09_r14_network.client[26] 	hdistance[26] 	2.6522286577688
scalar tree_4_3_u09_r14_network.client[26] 	downloads[26] 	11913
scalar tree_4_3_u09_r14_network.client[26] 	avg_time[26] 	0.004095019298
scalar tree_4_3_u09_r14_network.client[27] 	hdistance[27] 	2.590791558929
scalar tree_4_3_u09_r14_network.client[27] 	downloads[27] 	11989
scalar tree_4_3_u09_r14_network.client[27] 	avg_time[27] 	0.003999997035
scalar tree_4_3_u09_r14_network.client[28] 	hdistance[28] 	2.5626440566348
scalar tree_4_3_u09_r14_network.client[28] 	downloads[28] 	12148
scalar tree_4_3_u09_r14_network.client[28] 	avg_time[28] 	0.00397217346
scalar tree_4_3_u09_r14_network.client[29] 	hdistance[29] 	2.574113265047
scalar tree_4_3_u09_r14_network.client[29] 	downloads[29] 	11813
scalar tree_4_3_u09_r14_network.client[29] 	avg_time[29] 	0.003979172549
scalar tree_4_3_u09_r14_network.client[30] 	hdistance[30] 	2.627313862608
scalar tree_4_3_u09_r14_network.client[30] 	downloads[30] 	12155
scalar tree_4_3_u09_r14_network.client[30] 	avg_time[30] 	0.004078154121
scalar tree_4_3_u09_r14_network.client[31] 	hdistance[31] 	2.6180596388072
scalar tree_4_3_u09_r14_network.client[31] 	downloads[31] 	11905
scalar tree_4_3_u09_r14_network.client[31] 	avg_time[31] 	0.004072739598
scalar tree_4_3_u09_r14_network.client[32] 	hdistance[32] 	2.5975681341719
scalar tree_4_3_u09_r14_network.client[32] 	downloads[32] 	11925
scalar tree_4_3_u09_r14_network.client[32] 	avg_time[32] 	0.004028173137
scalar tree_4_3_u09_r14_network.client[33] 	hdistance[33] 	2.5340765138079
scalar tree_4_3_u09_r14_network.client[33] 	downloads[33] 	11841
scalar tree_4_3_u09_r14_network.client[33] 	avg_time[33] 	0.003919767315
scalar tree_4_3_u09_r14_network.client[34] 	hdistance[34] 	2.564820197658
scalar tree_4_3_u09_r14_network.client[34] 	downloads[34] 	12041
scalar tree_4_3_u09_r14_network.client[34] 	avg_time[34] 	0.00397275676
scalar tree_4_3_u09_r14_network.client[35] 	hdistance[35] 	2.6351397121084
scalar tree_4_3_u09_r14_network.client[35] 	downloads[35] 	11810
scalar tree_4_3_u09_r14_network.client[35] 	avg_time[35] 	0.004067058866
scalar tree_4_3_u09_r14_network.client[36] 	hdistance[36] 	2.6097441347176
scalar tree_4_3_u09_r14_network.client[36] 	downloads[36] 	12233
scalar tree_4_3_u09_r14_network.client[36] 	avg_time[36] 	0.004016019197
scalar tree_4_3_u09_r14_network.client[37] 	hdistance[37] 	2.5825386386057
scalar tree_4_3_u09_r14_network.client[37] 	downloads[37] 	12164
scalar tree_4_3_u09_r14_network.client[37] 	avg_time[37] 	0.004003943041
scalar tree_4_3_u09_r14_network.client[38] 	hdistance[38] 	2.6226809292997
scalar tree_4_3_u09_r14_network.client[38] 	downloads[38] 	11966
scalar tree_4_3_u09_r14_network.client[38] 	avg_time[38] 	0.004037269261
scalar tree_4_3_u09_r14_network.client[39] 	hdistance[39] 	2.6409412539082
scalar tree_4_3_u09_r14_network.client[39] 	downloads[39] 	12154
scalar tree_4_3_u09_r14_network.client[39] 	avg_time[39] 	0.004070920143
