version 2
run General-593-20160901-14:41:20-8710
attr a 0.9
attr cd tfc
attr configname General
attr cr lru
attr datetime 20160901-14:41:20
attr experiment General
attr fsize 1
attr inifile hw5115/scenario_Y/omnetp.ini
attr iterationvars "$name=tree_4_3, $un=09, $rep=18, $cd=tfc, $cr=lru, $fsize=1, $a=0.9, $sl=nrr, $ttl=1000, $variance=0.05"
attr iterationvars2 "$name=tree_4_3, $un=09, $rep=18, $cd=tfc, $cr=lru, $fsize=1, $a=0.9, $sl=nrr, $ttl=1000, $variance=0.05, $repetition=0"
attr measurement "$name=tree_4_3, $un=09, $rep=18, $cd=tfc, $cr=lru, $fsize=1, $a=0.9, $sl=nrr, $ttl=1000, $variance=0.05"
attr name tree_4_3
attr network networks.${name}_u${un}_r${rep}_network
attr processid 8710
attr rep 18
attr repetition 0
attr replication #0
attr resultdir results
attr runnumber 593
attr seedset 18
attr sl nrr
attr ttl 1000
attr un 09
attr variance 0.05

scalar . 	a 	0.9
scalar . 	fsize 	1
scalar . 	rep 	18
scalar . 	ttl 	1000
scalar . 	un 	09
scalar . 	variance 	0.05
scalar tree_4_3_u09_r18_network.content_distribution 	repo-0 	0
scalar tree_4_3_u09_r18_network.content_distribution 	client-0 	13
scalar tree_4_3_u09_r18_network.content_distribution 	client-1 	14
scalar tree_4_3_u09_r18_network.content_distribution 	client-2 	15
scalar tree_4_3_u09_r18_network.content_distribution 	client-3 	16
scalar tree_4_3_u09_r18_network.content_distribution 	client-4 	17
scalar tree_4_3_u09_r18_network.content_distribution 	client-5 	18
scalar tree_4_3_u09_r18_network.content_distribution 	client-6 	19
scalar tree_4_3_u09_r18_network.content_distribution 	client-7 	20
scalar tree_4_3_u09_r18_network.content_distribution 	client-8 	21
scalar tree_4_3_u09_r18_network.content_distribution 	client-9 	22
scalar tree_4_3_u09_r18_network.content_distribution 	client-10 	23
scalar tree_4_3_u09_r18_network.content_distribution 	client-11 	24
scalar tree_4_3_u09_r18_network.content_distribution 	client-12 	25
scalar tree_4_3_u09_r18_network.content_distribution 	client-13 	26
scalar tree_4_3_u09_r18_network.content_distribution 	client-14 	27
scalar tree_4_3_u09_r18_network.content_distribution 	client-15 	28
scalar tree_4_3_u09_r18_network.content_distribution 	client-16 	29
scalar tree_4_3_u09_r18_network.content_distribution 	client-17 	30
scalar tree_4_3_u09_r18_network.content_distribution 	client-18 	31
scalar tree_4_3_u09_r18_network.content_distribution 	client-19 	32
scalar tree_4_3_u09_r18_network.content_distribution 	client-20 	33
scalar tree_4_3_u09_r18_network.content_distribution 	client-21 	34
scalar tree_4_3_u09_r18_network.content_distribution 	client-22 	35
scalar tree_4_3_u09_r18_network.content_distribution 	client-23 	36
scalar tree_4_3_u09_r18_network.content_distribution 	client-24 	37
scalar tree_4_3_u09_r18_network.content_distribution 	client-25 	38
scalar tree_4_3_u09_r18_network.content_distribution 	client-26 	39
scalar tree_4_3_u09_r18_network.content_distribution 	repo-0_card 	100000
scalar tree_4_3_u09_r18_network.content_distribution 	repo-0_price 	0
scalar tree_4_3_u09_r18_network.statistics 	stabilization_time 	2086.7
scalar tree_4_3_u09_r18_network.statistics 	p_hit 	0.23202553981947
scalar tree_4_3_u09_r18_network.statistics 	interests 	24394.125
scalar tree_4_3_u09_r18_network.statistics 	data 	16300.875
scalar tree_4_3_u09_r18_network.statistics 	hdistance 	2.6004406025762
scalar tree_4_3_u09_r18_network.statistics 	avg_time 	0.004028319109
scalar tree_4_3_u09_r18_network.statistics 	downloads 	323721
scalar tree_4_3_u09_r18_network.statistics 	total_cost 	0
scalar tree_4_3_u09_r18_network.statistics 	total_replicas 	100000
scalar tree_4_3_u09_r18_network.statistics 	inner_hit 	0.41373899129188
scalar tree_4_3_u09_r18_network.node[0].core_layer 	interests[0] 	193147
scalar tree_4_3_u09_r18_network.node[0].core_layer 	repo_load[0] 	189785
scalar tree_4_3_u09_r18_network.node[0].core_layer 	data[0] 	0
scalar tree_4_3_u09_r18_network.node[0].core_layer 	repo_int[0] 	189785
scalar tree_4_3_u09_r18_network.node[0].content_store 	p_hit[0] 	0.017406431370925
scalar tree_4_3_u09_r18_network.node[0].content_store 	hits[0] 	3362
scalar tree_4_3_u09_r18_network.node[0].content_store 	misses[0] 	189785
scalar tree_4_3_u09_r18_network.node[0].content_store 	decision_yes[0] 	893
scalar tree_4_3_u09_r18_network.node[0].content_store 	decision_no[0] 	188892
scalar tree_4_3_u09_r18_network.node[0].content_store 	decision_ratio[0] 	0.0047053244460837
scalar tree_4_3_u09_r18_network.node[1].core_layer 	interests[1] 	141324
scalar tree_4_3_u09_r18_network.node[1].core_layer 	data[1] 	137722
scalar tree_4_3_u09_r18_network.node[1].content_store 	p_hit[1] 	0.025480456256545
scalar tree_4_3_u09_r18_network.node[1].content_store 	hits[1] 	3601
scalar tree_4_3_u09_r18_network.node[1].content_store 	misses[1] 	137723
scalar tree_4_3_u09_r18_network.node[1].content_store 	decision_yes[1] 	114
scalar tree_4_3_u09_r18_network.node[1].content_store 	decision_no[1] 	137608
scalar tree_4_3_u09_r18_network.node[1].content_store 	decision_ratio[1] 	0.00082775446188699
scalar tree_4_3_u09_r18_network.node[2].core_layer 	interests[2] 	48775
scalar tree_4_3_u09_r18_network.node[2].core_layer 	data[2] 	45552
scalar tree_4_3_u09_r18_network.node[2].content_store 	p_hit[2] 	0.066078933880062
scalar tree_4_3_u09_r18_network.node[2].content_store 	hits[2] 	3223
scalar tree_4_3_u09_r18_network.node[2].content_store 	misses[2] 	45552
scalar tree_4_3_u09_r18_network.node[2].content_store 	decision_yes[2] 	67
scalar tree_4_3_u09_r18_network.node[2].content_store 	decision_no[2] 	45485
scalar tree_4_3_u09_r18_network.node[2].content_store 	decision_ratio[2] 	0.0014708465050931
scalar tree_4_3_u09_r18_network.node[3].core_layer 	interests[3] 	18384
scalar tree_4_3_u09_r18_network.node[3].core_layer 	data[3] 	15849
scalar tree_4_3_u09_r18_network.node[3].content_store 	p_hit[3] 	0.13789164490862
scalar tree_4_3_u09_r18_network.node[3].content_store 	hits[3] 	2535
scalar tree_4_3_u09_r18_network.node[3].content_store 	misses[3] 	15849
scalar tree_4_3_u09_r18_network.node[3].content_store 	decision_yes[3] 	49
scalar tree_4_3_u09_r18_network.node[3].content_store 	decision_no[3] 	15800
scalar tree_4_3_u09_r18_network.node[3].content_store 	decision_ratio[3] 	0.0030916777083728
scalar tree_4_3_u09_r18_network.node[4].core_layer 	interests[4] 	41778
scalar tree_4_3_u09_r18_network.node[4].core_layer 	data[4] 	39255
scalar tree_4_3_u09_r18_network.node[4].content_store 	p_hit[4] 	0.06039063622002
scalar tree_4_3_u09_r18_network.node[4].content_store 	hits[4] 	2523
scalar tree_4_3_u09_r18_network.node[4].content_store 	misses[4] 	39255
scalar tree_4_3_u09_r18_network.node[4].content_store 	decision_yes[4] 	88
scalar tree_4_3_u09_r18_network.node[4].content_store 	decision_no[4] 	39167
scalar tree_4_3_u09_r18_network.node[4].content_store 	decision_ratio[4] 	0.0022417526429754
scalar tree_4_3_u09_r18_network.node[5].core_layer 	interests[5] 	26993
scalar tree_4_3_u09_r18_network.node[5].core_layer 	data[5] 	24340
scalar tree_4_3_u09_r18_network.node[5].content_store 	p_hit[5] 	0.098284740488275
scalar tree_4_3_u09_r18_network.node[5].content_store 	hits[5] 	2653
scalar tree_4_3_u09_r18_network.node[5].content_store 	misses[5] 	24340
scalar tree_4_3_u09_r18_network.node[5].content_store 	decision_yes[5] 	132
scalar tree_4_3_u09_r18_network.node[5].content_store 	decision_no[5] 	24208
scalar tree_4_3_u09_r18_network.node[5].content_store 	decision_ratio[5] 	0.0054231717337716
scalar tree_4_3_u09_r18_network.node[6].core_layer 	interests[6] 	11986
scalar tree_4_3_u09_r18_network.node[6].core_layer 	data[6] 	9389
scalar tree_4_3_u09_r18_network.node[6].content_store 	p_hit[6] 	0.21666944768897
scalar tree_4_3_u09_r18_network.node[6].content_store 	hits[6] 	2597
scalar tree_4_3_u09_r18_network.node[6].content_store 	misses[6] 	9389
scalar tree_4_3_u09_r18_network.node[6].content_store 	decision_yes[6] 	157
scalar tree_4_3_u09_r18_network.node[6].content_store 	decision_no[6] 	9232
scalar tree_4_3_u09_r18_network.node[6].content_store 	decision_ratio[6] 	0.016721695601235
scalar tree_4_3_u09_r18_network.node[7].core_layer 	interests[7] 	42606
scalar tree_4_3_u09_r18_network.node[7].core_layer 	data[7] 	39692
scalar tree_4_3_u09_r18_network.node[7].content_store 	p_hit[7] 	0.068370652020842
scalar tree_4_3_u09_r18_network.node[7].content_store 	hits[7] 	2913
scalar tree_4_3_u09_r18_network.node[7].content_store 	misses[7] 	39693
scalar tree_4_3_u09_r18_network.node[7].content_store 	decision_yes[7] 	107
scalar tree_4_3_u09_r18_network.node[7].content_store 	decision_no[7] 	39585
scalar tree_4_3_u09_r18_network.node[7].content_store 	decision_ratio[7] 	0.0026957573314522
scalar tree_4_3_u09_r18_network.node[8].core_layer 	interests[8] 	26281
scalar tree_4_3_u09_r18_network.node[8].core_layer 	data[8] 	24083
scalar tree_4_3_u09_r18_network.node[8].content_store 	p_hit[8] 	0.083634564894791
scalar tree_4_3_u09_r18_network.node[8].content_store 	hits[8] 	2198
scalar tree_4_3_u09_r18_network.node[8].content_store 	misses[8] 	24083
scalar tree_4_3_u09_r18_network.node[8].content_store 	decision_yes[8] 	60
scalar tree_4_3_u09_r18_network.node[8].content_store 	decision_no[8] 	24023
scalar tree_4_3_u09_r18_network.node[8].content_store 	decision_ratio[8] 	0.0024913839637919
scalar tree_4_3_u09_r18_network.node[9].core_layer 	interests[9] 	11000
scalar tree_4_3_u09_r18_network.node[9].core_layer 	data[9] 	8675
scalar tree_4_3_u09_r18_network.node[9].content_store 	p_hit[9] 	0.21136363636364
scalar tree_4_3_u09_r18_network.node[9].content_store 	hits[9] 	2325
scalar tree_4_3_u09_r18_network.node[9].content_store 	misses[9] 	8675
scalar tree_4_3_u09_r18_network.node[9].content_store 	decision_yes[9] 	70
scalar tree_4_3_u09_r18_network.node[9].content_store 	decision_no[9] 	8605
scalar tree_4_3_u09_r18_network.node[9].content_store 	decision_ratio[9] 	0.0080691642651297
scalar tree_4_3_u09_r18_network.node[10].core_layer 	interests[10] 	42024
scalar tree_4_3_u09_r18_network.node[10].core_layer 	data[10] 	39285
scalar tree_4_3_u09_r18_network.node[10].content_store 	p_hit[10] 	0.06510565391205
scalar tree_4_3_u09_r18_network.node[10].content_store 	hits[10] 	2736
scalar tree_4_3_u09_r18_network.node[10].content_store 	misses[10] 	39288
scalar tree_4_3_u09_r18_network.node[10].content_store 	decision_yes[10] 	89
scalar tree_4_3_u09_r18_network.node[10].content_store 	decision_no[10] 	39196
scalar tree_4_3_u09_r18_network.node[10].content_store 	decision_ratio[10] 	0.0022654957362861
scalar tree_4_3_u09_r18_network.node[11].core_layer 	interests[11] 	18946
scalar tree_4_3_u09_r18_network.node[11].core_layer 	data[11] 	16621
scalar tree_4_3_u09_r18_network.node[11].content_store 	p_hit[11] 	0.12271719624195
scalar tree_4_3_u09_r18_network.node[11].content_store 	hits[11] 	2325
scalar tree_4_3_u09_r18_network.node[11].content_store 	misses[11] 	16621
scalar tree_4_3_u09_r18_network.node[11].content_store 	decision_yes[11] 	92
scalar tree_4_3_u09_r18_network.node[11].content_store 	decision_no[11] 	16529
scalar tree_4_3_u09_r18_network.node[11].content_store 	decision_ratio[11] 	0.0055351663558149
scalar tree_4_3_u09_r18_network.node[12].core_layer 	interests[12] 	19105
scalar tree_4_3_u09_r18_network.node[12].core_layer 	data[12] 	16831
scalar tree_4_3_u09_r18_network.node[12].content_store 	p_hit[12] 	0.11897409055221
scalar tree_4_3_u09_r18_network.node[12].content_store 	hits[12] 	2273
scalar tree_4_3_u09_r18_network.node[12].content_store 	misses[12] 	16832
scalar tree_4_3_u09_r18_network.node[12].content_store 	decision_yes[12] 	89
scalar tree_4_3_u09_r18_network.node[12].content_store 	decision_no[12] 	16742
scalar tree_4_3_u09_r18_network.node[12].content_store 	decision_ratio[12] 	0.0052878616837978
scalar tree_4_3_u09_r18_network.node[13].core_layer 	interests[13] 	12114
scalar tree_4_3_u09_r18_network.node[13].core_layer 	data[13] 	8678
scalar tree_4_3_u09_r18_network.node[13].content_store 	p_hit[13] 	0.28363876506521
scalar tree_4_3_u09_r18_network.node[13].content_store 	hits[13] 	3436
scalar tree_4_3_u09_r18_network.node[13].content_store 	misses[13] 	8678
scalar tree_4_3_u09_r18_network.node[13].content_store 	decision_yes[13] 	26
scalar tree_4_3_u09_r18_network.node[13].content_store 	decision_no[13] 	8652
scalar tree_4_3_u09_r18_network.node[13].content_store 	decision_ratio[13] 	0.0029960820465545
scalar tree_4_3_u09_r18_network.node[14].core_layer 	interests[14] 	12726
scalar tree_4_3_u09_r18_network.node[14].core_layer 	data[14] 	8936
scalar tree_4_3_u09_r18_network.node[14].content_store 	p_hit[14] 	0.2978154958353
scalar tree_4_3_u09_r18_network.node[14].content_store 	hits[14] 	3790
scalar tree_4_3_u09_r18_network.node[14].content_store 	misses[14] 	8936
scalar tree_4_3_u09_r18_network.node[14].content_store 	decision_yes[14] 	34
scalar tree_4_3_u09_r18_network.node[14].content_store 	decision_no[14] 	8902
scalar tree_4_3_u09_r18_network.node[14].content_store 	decision_ratio[14] 	0.0038048343777977
scalar tree_4_3_u09_r18_network.node[15].core_layer 	interests[15] 	12646
scalar tree_4_3_u09_r18_network.node[15].core_layer 	data[15] 	8802
scalar tree_4_3_u09_r18_network.node[15].content_store 	p_hit[15] 	0.3038905582793
scalar tree_4_3_u09_r18_network.node[15].content_store 	hits[15] 	3843
scalar tree_4_3_u09_r18_network.node[15].content_store 	misses[15] 	8803
scalar tree_4_3_u09_r18_network.node[15].content_store 	decision_yes[15] 	47
scalar tree_4_3_u09_r18_network.node[15].content_store 	decision_no[15] 	8755
scalar tree_4_3_u09_r18_network.node[15].content_store 	decision_ratio[15] 	0.0053396955237446
scalar tree_4_3_u09_r18_network.node[16].core_layer 	interests[16] 	12538
scalar tree_4_3_u09_r18_network.node[16].core_layer 	data[16] 	8792
scalar tree_4_3_u09_r18_network.node[16].content_store 	p_hit[16] 	0.29877173392886
scalar tree_4_3_u09_r18_network.node[16].content_store 	hits[16] 	3746
scalar tree_4_3_u09_r18_network.node[16].content_store 	misses[16] 	8792
scalar tree_4_3_u09_r18_network.node[16].content_store 	decision_yes[16] 	41
scalar tree_4_3_u09_r18_network.node[16].content_store 	decision_no[16] 	8751
scalar tree_4_3_u09_r18_network.node[16].content_store 	decision_ratio[16] 	0.004663330300273
scalar tree_4_3_u09_r18_network.node[17].core_layer 	interests[17] 	12210
scalar tree_4_3_u09_r18_network.node[17].core_layer 	data[17] 	8625
scalar tree_4_3_u09_r18_network.node[17].content_store 	p_hit[17] 	0.29361179361179
scalar tree_4_3_u09_r18_network.node[17].content_store 	hits[17] 	3585
scalar tree_4_3_u09_r18_network.node[17].content_store 	misses[17] 	8625
scalar tree_4_3_u09_r18_network.node[17].content_store 	decision_yes[17] 	15
scalar tree_4_3_u09_r18_network.node[17].content_store 	decision_no[17] 	8610
scalar tree_4_3_u09_r18_network.node[17].content_store 	decision_ratio[17] 	0.0017391304347826
scalar tree_4_3_u09_r18_network.node[18].core_layer 	interests[18] 	12288
scalar tree_4_3_u09_r18_network.node[18].core_layer 	data[18] 	8528
scalar tree_4_3_u09_r18_network.node[18].content_store 	p_hit[18] 	0.305908203125
scalar tree_4_3_u09_r18_network.node[18].content_store 	hits[18] 	3759
scalar tree_4_3_u09_r18_network.node[18].content_store 	misses[18] 	8529
scalar tree_4_3_u09_r18_network.node[18].content_store 	decision_yes[18] 	52
scalar tree_4_3_u09_r18_network.node[18].content_store 	decision_no[18] 	8476
scalar tree_4_3_u09_r18_network.node[18].content_store 	decision_ratio[18] 	0.0060975609756098
scalar tree_4_3_u09_r18_network.node[19].core_layer 	interests[19] 	12446
scalar tree_4_3_u09_r18_network.node[19].core_layer 	data[19] 	8694
scalar tree_4_3_u09_r18_network.node[19].content_store 	p_hit[19] 	0.30146231721035
scalar tree_4_3_u09_r18_network.node[19].content_store 	hits[19] 	3752
scalar tree_4_3_u09_r18_network.node[19].content_store 	misses[19] 	8694
scalar tree_4_3_u09_r18_network.node[19].content_store 	decision_yes[19] 	48
scalar tree_4_3_u09_r18_network.node[19].content_store 	decision_no[19] 	8646
scalar tree_4_3_u09_r18_network.node[19].content_store 	decision_ratio[19] 	0.0055210489993099
scalar tree_4_3_u09_r18_network.node[20].core_layer 	interests[20] 	12368
scalar tree_4_3_u09_r18_network.node[20].core_layer 	data[20] 	8710
scalar tree_4_3_u09_r18_network.node[20].content_store 	p_hit[20] 	0.29568240620957
scalar tree_4_3_u09_r18_network.node[20].content_store 	hits[20] 	3657
scalar tree_4_3_u09_r18_network.node[20].content_store 	misses[20] 	8711
scalar tree_4_3_u09_r18_network.node[20].content_store 	decision_yes[20] 	53
scalar tree_4_3_u09_r18_network.node[20].content_store 	decision_no[20] 	8657
scalar tree_4_3_u09_r18_network.node[20].content_store 	decision_ratio[20] 	0.0060849598163031
scalar tree_4_3_u09_r18_network.node[21].core_layer 	interests[21] 	12055
scalar tree_4_3_u09_r18_network.node[21].core_layer 	data[21] 	8623
scalar tree_4_3_u09_r18_network.node[21].content_store 	p_hit[21] 	0.28469514724181
scalar tree_4_3_u09_r18_network.node[21].content_store 	hits[21] 	3432
scalar tree_4_3_u09_r18_network.node[21].content_store 	misses[21] 	8623
scalar tree_4_3_u09_r18_network.node[21].content_store 	decision_yes[21] 	33
scalar tree_4_3_u09_r18_network.node[21].content_store 	decision_no[21] 	8590
scalar tree_4_3_u09_r18_network.node[21].content_store 	decision_ratio[21] 	0.0038269743708686
scalar tree_4_3_u09_r18_network.node[22].core_layer 	interests[22] 	12214
scalar tree_4_3_u09_r18_network.node[22].core_layer 	data[22] 	8633
scalar tree_4_3_u09_r18_network.node[22].content_store 	p_hit[22] 	0.29318814475192
scalar tree_4_3_u09_r18_network.node[22].content_store 	hits[22] 	3581
scalar tree_4_3_u09_r18_network.node[22].content_store 	misses[22] 	8633
scalar tree_4_3_u09_r18_network.node[22].content_store 	decision_yes[22] 	26
scalar tree_4_3_u09_r18_network.node[22].content_store 	decision_no[22] 	8607
scalar tree_4_3_u09_r18_network.node[22].content_store 	decision_ratio[22] 	0.003011699293409
scalar tree_4_3_u09_r18_network.node[23].core_layer 	interests[23] 	12369
scalar tree_4_3_u09_r18_network.node[23].core_layer 	data[23] 	8695
scalar tree_4_3_u09_r18_network.node[23].content_store 	p_hit[23] 	0.29703290484275
scalar tree_4_3_u09_r18_network.node[23].content_store 	hits[23] 	3674
scalar tree_4_3_u09_r18_network.node[23].content_store 	misses[23] 	8695
scalar tree_4_3_u09_r18_network.node[23].content_store 	decision_yes[23] 	41
scalar tree_4_3_u09_r18_network.node[23].content_store 	decision_no[23] 	8654
scalar tree_4_3_u09_r18_network.node[23].content_store 	decision_ratio[23] 	0.0047153536515239
scalar tree_4_3_u09_r18_network.node[24].core_layer 	interests[24] 	12483
scalar tree_4_3_u09_r18_network.node[24].core_layer 	data[24] 	8765
scalar tree_4_3_u09_r18_network.node[24].content_store 	p_hit[24] 	0.29784506929424
scalar tree_4_3_u09_r18_network.node[24].content_store 	hits[24] 	3718
scalar tree_4_3_u09_r18_network.node[24].content_store 	misses[24] 	8765
scalar tree_4_3_u09_r18_network.node[24].content_store 	decision_yes[24] 	50
scalar tree_4_3_u09_r18_network.node[24].content_store 	decision_no[24] 	8715
scalar tree_4_3_u09_r18_network.node[24].content_store 	decision_ratio[24] 	0.0057045065601825
scalar tree_4_3_u09_r18_network.node[25].core_layer 	interests[25] 	12589
scalar tree_4_3_u09_r18_network.node[25].core_layer 	data[25] 	8798
scalar tree_4_3_u09_r18_network.node[25].content_store 	p_hit[25] 	0.30113591230439
scalar tree_4_3_u09_r18_network.node[25].content_store 	hits[25] 	3791
scalar tree_4_3_u09_r18_network.node[25].content_store 	misses[25] 	8798
scalar tree_4_3_u09_r18_network.node[25].content_store 	decision_yes[25] 	33
scalar tree_4_3_u09_r18_network.node[25].content_store 	decision_no[25] 	8765
scalar tree_4_3_u09_r18_network.node[25].content_store 	decision_ratio[25] 	0.0037508524664697
scalar tree_4_3_u09_r18_network.node[26].core_layer 	interests[26] 	12154
scalar tree_4_3_u09_r18_network.node[26].core_layer 	data[26] 	8561
scalar tree_4_3_u09_r18_network.node[26].content_store 	p_hit[26] 	0.29562284021721
scalar tree_4_3_u09_r18_network.node[26].content_store 	hits[26] 	3593
scalar tree_4_3_u09_r18_network.node[26].content_store 	misses[26] 	8561
scalar tree_4_3_u09_r18_network.node[26].content_store 	decision_yes[26] 	29
scalar tree_4_3_u09_r18_network.node[26].content_store 	decision_no[26] 	8532
scalar tree_4_3_u09_r18_network.node[26].content_store 	decision_ratio[26] 	0.0033874547365962
scalar tree_4_3_u09_r18_network.node[27].core_layer 	interests[27] 	12379
scalar tree_4_3_u09_r18_network.node[27].core_layer 	data[27] 	8696
scalar tree_4_3_u09_r18_network.node[27].content_store 	p_hit[27] 	0.29751999353744
scalar tree_4_3_u09_r18_network.node[27].content_store 	hits[27] 	3683
scalar tree_4_3_u09_r18_network.node[27].content_store 	misses[27] 	8696
scalar tree_4_3_u09_r18_network.node[27].content_store 	decision_yes[27] 	46
scalar tree_4_3_u09_r18_network.node[27].content_store 	decision_no[27] 	8650
scalar tree_4_3_u09_r18_network.node[27].content_store 	decision_ratio[27] 	0.0052897884084637
scalar tree_4_3_u09_r18_network.node[28].core_layer 	interests[28] 	12377
scalar tree_4_3_u09_r18_network.node[28].core_layer 	data[28] 	8701
scalar tree_4_3_u09_r18_network.node[28].content_store 	p_hit[28] 	0.29700250464571
scalar tree_4_3_u09_r18_network.node[28].content_store 	hits[28] 	3676
scalar tree_4_3_u09_r18_network.node[28].content_store 	misses[28] 	8701
scalar tree_4_3_u09_r18_network.node[28].content_store 	decision_yes[28] 	48
scalar tree_4_3_u09_r18_network.node[28].content_store 	decision_no[28] 	8653
scalar tree_4_3_u09_r18_network.node[28].content_store 	decision_ratio[28] 	0.0055166072865188
scalar tree_4_3_u09_r18_network.node[29].core_layer 	interests[29] 	12216
scalar tree_4_3_u09_r18_network.node[29].core_layer 	data[29] 	8632
scalar tree_4_3_u09_r18_network.node[29].content_store 	p_hit[29] 	0.29338572364113
scalar tree_4_3_u09_r18_network.node[29].content_store 	hits[29] 	3584
scalar tree_4_3_u09_r18_network.node[29].content_store 	misses[29] 	8632
scalar tree_4_3_u09_r18_network.node[29].content_store 	decision_yes[29] 	46
scalar tree_4_3_u09_r18_network.node[29].content_store 	decision_no[29] 	8586
scalar tree_4_3_u09_r18_network.node[29].content_store 	decision_ratio[29] 	0.0053290083410565
scalar tree_4_3_u09_r18_network.node[30].core_layer 	interests[30] 	12224
scalar tree_4_3_u09_r18_network.node[30].core_layer 	data[30] 	8712
scalar tree_4_3_u09_r18_network.node[30].content_store 	p_hit[30] 	0.28730366492147
scalar tree_4_3_u09_r18_network.node[30].content_store 	hits[30] 	3512
scalar tree_4_3_u09_r18_network.node[30].content_store 	misses[30] 	8712
scalar tree_4_3_u09_r18_network.node[30].content_store 	decision_yes[30] 	29
scalar tree_4_3_u09_r18_network.node[30].content_store 	decision_no[30] 	8683
scalar tree_4_3_u09_r18_network.node[30].content_store 	decision_ratio[30] 	0.0033287419651056
scalar tree_4_3_u09_r18_network.node[31].core_layer 	interests[31] 	12151
scalar tree_4_3_u09_r18_network.node[31].core_layer 	data[31] 	8570
scalar tree_4_3_u09_r18_network.node[31].content_store 	p_hit[31] 	0.29470825446465
scalar tree_4_3_u09_r18_network.node[31].content_store 	hits[31] 	3581
scalar tree_4_3_u09_r18_network.node[31].content_store 	misses[31] 	8570
scalar tree_4_3_u09_r18_network.node[31].content_store 	decision_yes[31] 	13
scalar tree_4_3_u09_r18_network.node[31].content_store 	decision_no[31] 	8557
scalar tree_4_3_u09_r18_network.node[31].content_store 	decision_ratio[31] 	0.0015169194865811
scalar tree_4_3_u09_r18_network.node[32].core_layer 	interests[32] 	12370
scalar tree_4_3_u09_r18_network.node[32].core_layer 	data[32] 	8661
scalar tree_4_3_u09_r18_network.node[32].content_store 	p_hit[32] 	0.29983831851253
scalar tree_4_3_u09_r18_network.node[32].content_store 	hits[32] 	3709
scalar tree_4_3_u09_r18_network.node[32].content_store 	misses[32] 	8661
scalar tree_4_3_u09_r18_network.node[32].content_store 	decision_yes[32] 	34
scalar tree_4_3_u09_r18_network.node[32].content_store 	decision_no[32] 	8627
scalar tree_4_3_u09_r18_network.node[32].content_store 	decision_ratio[32] 	0.0039256436901051
scalar tree_4_3_u09_r18_network.node[33].core_layer 	interests[33] 	12518
scalar tree_4_3_u09_r18_network.node[33].core_layer 	data[33] 	8688
scalar tree_4_3_u09_r18_network.node[33].content_store 	p_hit[33] 	0.30595941843745
scalar tree_4_3_u09_r18_network.node[33].content_store 	hits[33] 	3830
scalar tree_4_3_u09_r18_network.node[33].content_store 	misses[33] 	8688
scalar tree_4_3_u09_r18_network.node[33].content_store 	decision_yes[33] 	45
scalar tree_4_3_u09_r18_network.node[33].content_store 	decision_no[33] 	8643
scalar tree_4_3_u09_r18_network.node[33].content_store 	decision_ratio[33] 	0.0051795580110497
scalar tree_4_3_u09_r18_network.node[34].core_layer 	interests[34] 	12448
scalar tree_4_3_u09_r18_network.node[34].core_layer 	data[34] 	8740
scalar tree_4_3_u09_r18_network.node[34].content_store 	p_hit[34] 	0.29779884318766
scalar tree_4_3_u09_r18_network.node[34].content_store 	hits[34] 	3707
scalar tree_4_3_u09_r18_network.node[34].content_store 	misses[34] 	8741
scalar tree_4_3_u09_r18_network.node[34].content_store 	decision_yes[34] 	45
scalar tree_4_3_u09_r18_network.node[34].content_store 	decision_no[34] 	8695
scalar tree_4_3_u09_r18_network.node[34].content_store 	decision_ratio[34] 	0.0051487414187643
scalar tree_4_3_u09_r18_network.node[35].core_layer 	interests[35] 	12298
scalar tree_4_3_u09_r18_network.node[35].core_layer 	data[35] 	8787
scalar tree_4_3_u09_r18_network.node[35].content_store 	p_hit[35] 	0.28549357619125
scalar tree_4_3_u09_r18_network.node[35].content_store 	hits[35] 	3511
scalar tree_4_3_u09_r18_network.node[35].content_store 	misses[35] 	8787
scalar tree_4_3_u09_r18_network.node[35].content_store 	decision_yes[35] 	27
scalar tree_4_3_u09_r18_network.node[35].content_store 	decision_no[35] 	8760
scalar tree_4_3_u09_r18_network.node[35].content_store 	decision_ratio[35] 	0.00307272106521
scalar tree_4_3_u09_r18_network.node[36].core_layer 	interests[36] 	12348
scalar tree_4_3_u09_r18_network.node[36].core_layer 	data[36] 	8643
scalar tree_4_3_u09_r18_network.node[36].content_store 	p_hit[36] 	0.30004859086492
scalar tree_4_3_u09_r18_network.node[36].content_store 	hits[36] 	3705
scalar tree_4_3_u09_r18_network.node[36].content_store 	misses[36] 	8643
scalar tree_4_3_u09_r18_network.node[36].content_store 	decision_yes[36] 	49
scalar tree_4_3_u09_r18_network.node[36].content_store 	decision_no[36] 	8594
scalar tree_4_3_u09_r18_network.node[36].content_store 	decision_ratio[36] 	0.0056693277797061
scalar tree_4_3_u09_r18_network.node[37].core_layer 	interests[37] 	12523
scalar tree_4_3_u09_r18_network.node[37].core_layer 	data[37] 	8759
scalar tree_4_3_u09_r18_network.node[37].content_store 	p_hit[37] 	0.30048710372914
scalar tree_4_3_u09_r18_network.node[37].content_store 	hits[37] 	3763
scalar tree_4_3_u09_r18_network.node[37].content_store 	misses[37] 	8760
scalar tree_4_3_u09_r18_network.node[37].content_store 	decision_yes[37] 	46
scalar tree_4_3_u09_r18_network.node[37].content_store 	decision_no[37] 	8713
scalar tree_4_3_u09_r18_network.node[37].content_store 	decision_ratio[37] 	0.0052517410663318
scalar tree_4_3_u09_r18_network.node[38].core_layer 	interests[38] 	12179
scalar tree_4_3_u09_r18_network.node[38].core_layer 	data[38] 	8619
scalar tree_4_3_u09_r18_network.node[38].content_store 	p_hit[38] 	0.29230642909927
scalar tree_4_3_u09_r18_network.node[38].content_store 	hits[38] 	3560
scalar tree_4_3_u09_r18_network.node[38].content_store 	misses[38] 	8619
scalar tree_4_3_u09_r18_network.node[38].content_store 	decision_yes[38] 	41
scalar tree_4_3_u09_r18_network.node[38].content_store 	decision_no[38] 	8578
scalar tree_4_3_u09_r18_network.node[38].content_store 	decision_ratio[38] 	0.0047569323587423
scalar tree_4_3_u09_r18_network.node[39].core_layer 	interests[39] 	12185
scalar tree_4_3_u09_r18_network.node[39].core_layer 	data[39] 	8693
scalar tree_4_3_u09_r18_network.node[39].content_store 	p_hit[39] 	0.28649979482971
scalar tree_4_3_u09_r18_network.node[39].content_store 	hits[39] 	3491
scalar tree_4_3_u09_r18_network.node[39].content_store 	misses[39] 	8694
scalar tree_4_3_u09_r18_network.node[39].content_store 	decision_yes[39] 	35
scalar tree_4_3_u09_r18_network.node[39].content_store 	decision_no[39] 	8658
scalar tree_4_3_u09_r18_network.node[39].content_store 	decision_ratio[39] 	0.0040262279995399
scalar tree_4_3_u09_r18_network.client[13] 	hdistance[13] 	2.6564365593206
scalar tree_4_3_u09_r18_network.client[13] 	downloads[13] 	11893
scalar tree_4_3_u09_r18_network.client[13] 	avg_time[13] 	0.004130830293
scalar tree_4_3_u09_r18_network.client[14] 	hdistance[14] 	2.6273961332785
scalar tree_4_3_u09_r18_network.client[14] 	downloads[14] 	12155
scalar tree_4_3_u09_r18_network.client[14] 	avg_time[14] 	0.004070420691
scalar tree_4_3_u09_r18_network.client[15] 	hdistance[15] 	2.5780208933125
scalar tree_4_3_u09_r18_network.client[15] 	downloads[15] 	12157
scalar tree_4_3_u09_r18_network.client[15] 	avg_time[15] 	0.003989635766
scalar tree_4_3_u09_r18_network.client[16] 	hdistance[16] 	2.5901939565471
scalar tree_4_3_u09_r18_network.client[16] 	downloads[16] 	12013
scalar tree_4_3_u09_r18_network.client[16] 	avg_time[16] 	0.004011651047
scalar tree_4_3_u09_r18_network.client[17] 	hdistance[17] 	2.603433905651
scalar tree_4_3_u09_r18_network.client[17] 	downloads[17] 	11998
scalar tree_4_3_u09_r18_network.client[17] 	avg_time[17] 	0.004049838636
scalar tree_4_3_u09_r18_network.client[18] 	hdistance[18] 	2.5642675698561
scalar tree_4_3_u09_r18_network.client[18] 	downloads[18] 	11810
scalar tree_4_3_u09_r18_network.client[18] 	avg_time[18] 	0.003971969298
scalar tree_4_3_u09_r18_network.client[19] 	hdistance[19] 	2.5760006685051
scalar tree_4_3_u09_r18_network.client[19] 	downloads[19] 	11967
scalar tree_4_3_u09_r18_network.client[19] 	avg_time[19] 	0.003992309188
scalar tree_4_3_u09_r18_network.client[20] 	hdistance[20] 	2.5793764181864
scalar tree_4_3_u09_r18_network.client[20] 	downloads[20] 	11899
scalar tree_4_3_u09_r18_network.client[20] 	avg_time[20] 	0.003996793799
scalar tree_4_3_u09_r18_network.client[21] 	hdistance[21] 	2.6281318311754
scalar tree_4_3_u09_r18_network.client[21] 	downloads[21] 	11894
scalar tree_4_3_u09_r18_network.client[21] 	avg_time[21] 	0.004089285763
scalar tree_4_3_u09_r18_network.client[22] 	hdistance[22] 	2.596048024012
scalar tree_4_3_u09_r18_network.client[22] 	downloads[22] 	11994
scalar tree_4_3_u09_r18_network.client[22] 	avg_time[22] 	0.004041081399
scalar tree_4_3_u09_r18_network.client[23] 	hdistance[23] 	2.5964411616586
scalar tree_4_3_u09_r18_network.client[23] 	downloads[23] 	11914
scalar tree_4_3_u09_r18_network.client[23] 	avg_time[23] 	0.004025177502
scalar tree_4_3_u09_r18_network.client[24] 	hdistance[24] 	2.5793597865955
scalar tree_4_3_u09_r18_network.client[24] 	downloads[24] 	11996
scalar tree_4_3_u09_r18_network.client[24] 	avg_time[24] 	0.00399933009
scalar tree_4_3_u09_r18_network.client[25] 	hdistance[25] 	2.570294409527
scalar tree_4_3_u09_r18_network.client[25] 	downloads[25] 	12092
scalar tree_4_3_u09_r18_network.client[25] 	avg_time[25] 	0.003989576859
scalar tree_4_3_u09_r18_network.client[26] 	hdistance[26] 	2.6175736395407
scalar tree_4_3_u09_r18_network.client[26] 	downloads[26] 	12018
scalar tree_4_3_u09_r18_network.client[26] 	avg_time[26] 	0.004043764673
scalar tree_4_3_u09_r18_network.client[27] 	hdistance[27] 	2.6046279340769
scalar tree_4_3_u09_r18_network.client[27] 	downloads[27] 	12014
scalar tree_4_3_u09_r18_network.client[27] 	avg_time[27] 	0.004019640777
scalar tree_4_3_u09_r18_network.client[28] 	hdistance[28] 	2.5846925972397
scalar tree_4_3_u09_r18_network.client[28] 	downloads[28] 	11955
scalar tree_4_3_u09_r18_network.client[28] 	avg_time[28] 	0.004004848533
scalar tree_4_3_u09_r18_network.client[29] 	hdistance[29] 	2.6254842513054
scalar tree_4_3_u09_r18_network.client[29] 	downloads[29] 	11874
scalar tree_4_3_u09_r18_network.client[29] 	avg_time[29] 	0.004042779579
scalar tree_4_3_u09_r18_network.client[30] 	hdistance[30] 	2.6402610275896
scalar tree_4_3_u09_r18_network.client[30] 	downloads[30] 	12106
scalar tree_4_3_u09_r18_network.client[30] 	avg_time[30] 	0.00408144419
scalar tree_4_3_u09_r18_network.client[31] 	hdistance[31] 	2.5938440950151
scalar tree_4_3_u09_r18_network.client[31] 	downloads[31] 	11956
scalar tree_4_3_u09_r18_network.client[31] 	avg_time[31] 	0.004033263716
scalar tree_4_3_u09_r18_network.client[32] 	hdistance[32] 	2.5687311178248
scalar tree_4_3_u09_r18_network.client[32] 	downloads[32] 	11916
scalar tree_4_3_u09_r18_network.client[32] 	avg_time[32] 	0.003976519765
scalar tree_4_3_u09_r18_network.client[33] 	hdistance[33] 	2.5609269872913
scalar tree_4_3_u09_r18_network.client[33] 	downloads[33] 	12039
scalar tree_4_3_u09_r18_network.client[33] 	avg_time[33] 	0.003966605534
scalar tree_4_3_u09_r18_network.client[34] 	hdistance[34] 	2.558919189392
scalar tree_4_3_u09_r18_network.client[34] 	downloads[34] 	11991
scalar tree_4_3_u09_r18_network.client[34] 	avg_time[34] 	0.003970472442
scalar tree_4_3_u09_r18_network.client[35] 	hdistance[35] 	2.6295900763986
scalar tree_4_3_u09_r18_network.client[35] 	downloads[35] 	12173
scalar tree_4_3_u09_r18_network.client[35] 	avg_time[35] 	0.004073931067
scalar tree_4_3_u09_r18_network.client[36] 	hdistance[36] 	2.6011112981983
scalar tree_4_3_u09_r18_network.client[36] 	downloads[36] 	11878
scalar tree_4_3_u09_r18_network.client[36] 	avg_time[36] 	0.004020202448
scalar tree_4_3_u09_r18_network.client[37] 	hdistance[37] 	2.5785089546022
scalar tree_4_3_u09_r18_network.client[37] 	downloads[37] 	12005
scalar tree_4_3_u09_r18_network.client[37] 	avg_time[37] 	0.003995703476
scalar tree_4_3_u09_r18_network.client[38] 	hdistance[38] 	2.6411602900725
scalar tree_4_3_u09_r18_network.client[38] 	downloads[38] 	11997
scalar tree_4_3_u09_r18_network.client[38] 	avg_time[38] 	0.004078183205
scalar tree_4_3_u09_r18_network.client[39] 	hdistance[39] 	2.6610634933844
scalar tree_4_3_u09_r18_network.client[39] 	downloads[39] 	12017
scalar tree_4_3_u09_r18_network.client[39] 	avg_time[39] 	0.004099356227
