version 2
run General-15-20160830-20:10:30-19036
attr a 0.9
attr branch 3
attr cd ffc0.01
attr configname General
attr cr lru
attr datetime 20160830-20:10:30
attr experiment General
attr fsize 1
attr inifile hw5115/scenario_E/omnetp.ini
attr iterationvars "$name=tree, $levels=5, $branch=3, $un=10, $rep=1, $cd=ffc0.01, $cr=lru, $fsize=1, $a=0.9, $sl=spr, $ttl=1000, $variance=0.05"
attr iterationvars2 "$name=tree, $levels=5, $branch=3, $un=10, $rep=1, $cd=ffc0.01, $cr=lru, $fsize=1, $a=0.9, $sl=spr, $ttl=1000, $variance=0.05, $repetition=0"
attr levels 5
attr measurement "$name=tree, $levels=5, $branch=3, $un=10, $rep=1, $cd=ffc0.01, $cr=lru, $fsize=1, $a=0.9, $sl=spr, $ttl=1000, $variance=0.05"
attr name tree
attr network networks.${name}_${levels}_${branch}_u${un}_r${rep}_network
attr processid 19036
attr rep 1
attr repetition 0
attr replication #0
attr resultdir results
attr runnumber 15
attr seedset 1
attr sl spr
attr ttl 1000
attr un 10
attr variance 0.05

scalar . 	a 	0.9
scalar . 	branch 	3
scalar . 	fsize 	1
scalar . 	levels 	5
scalar . 	rep 	1
scalar . 	ttl 	1000
scalar . 	un 	10
scalar . 	variance 	0.05
scalar tree_5_3_u10_r1_network.content_distribution 	repo-0 	0
scalar tree_5_3_u10_r1_network.content_distribution 	client-0 	120
scalar tree_5_3_u10_r1_network.content_distribution 	client-1 	119
scalar tree_5_3_u10_r1_network.content_distribution 	client-2 	118
scalar tree_5_3_u10_r1_network.content_distribution 	client-3 	117
scalar tree_5_3_u10_r1_network.content_distribution 	client-4 	116
scalar tree_5_3_u10_r1_network.content_distribution 	client-5 	115
scalar tree_5_3_u10_r1_network.content_distribution 	client-6 	114
scalar tree_5_3_u10_r1_network.content_distribution 	client-7 	113
scalar tree_5_3_u10_r1_network.content_distribution 	client-8 	112
scalar tree_5_3_u10_r1_network.content_distribution 	client-9 	111
scalar tree_5_3_u10_r1_network.content_distribution 	client-10 	110
scalar tree_5_3_u10_r1_network.content_distribution 	client-11 	109
scalar tree_5_3_u10_r1_network.content_distribution 	client-12 	108
scalar tree_5_3_u10_r1_network.content_distribution 	client-13 	107
scalar tree_5_3_u10_r1_network.content_distribution 	client-14 	106
scalar tree_5_3_u10_r1_network.content_distribution 	client-15 	105
scalar tree_5_3_u10_r1_network.content_distribution 	client-16 	104
scalar tree_5_3_u10_r1_network.content_distribution 	client-17 	103
scalar tree_5_3_u10_r1_network.content_distribution 	client-18 	102
scalar tree_5_3_u10_r1_network.content_distribution 	client-19 	101
scalar tree_5_3_u10_r1_network.content_distribution 	client-20 	100
scalar tree_5_3_u10_r1_network.content_distribution 	client-21 	99
scalar tree_5_3_u10_r1_network.content_distribution 	client-22 	98
scalar tree_5_3_u10_r1_network.content_distribution 	client-23 	97
scalar tree_5_3_u10_r1_network.content_distribution 	client-24 	96
scalar tree_5_3_u10_r1_network.content_distribution 	client-25 	95
scalar tree_5_3_u10_r1_network.content_distribution 	client-26 	94
scalar tree_5_3_u10_r1_network.content_distribution 	client-27 	93
scalar tree_5_3_u10_r1_network.content_distribution 	client-28 	92
scalar tree_5_3_u10_r1_network.content_distribution 	client-29 	91
scalar tree_5_3_u10_r1_network.content_distribution 	client-30 	90
scalar tree_5_3_u10_r1_network.content_distribution 	client-31 	89
scalar tree_5_3_u10_r1_network.content_distribution 	client-32 	88
scalar tree_5_3_u10_r1_network.content_distribution 	client-33 	87
scalar tree_5_3_u10_r1_network.content_distribution 	client-34 	86
scalar tree_5_3_u10_r1_network.content_distribution 	client-35 	85
scalar tree_5_3_u10_r1_network.content_distribution 	client-36 	84
scalar tree_5_3_u10_r1_network.content_distribution 	client-37 	83
scalar tree_5_3_u10_r1_network.content_distribution 	client-38 	82
scalar tree_5_3_u10_r1_network.content_distribution 	client-39 	81
scalar tree_5_3_u10_r1_network.content_distribution 	client-40 	80
scalar tree_5_3_u10_r1_network.content_distribution 	client-41 	79
scalar tree_5_3_u10_r1_network.content_distribution 	client-42 	78
scalar tree_5_3_u10_r1_network.content_distribution 	client-43 	77
scalar tree_5_3_u10_r1_network.content_distribution 	client-44 	76
scalar tree_5_3_u10_r1_network.content_distribution 	client-45 	75
scalar tree_5_3_u10_r1_network.content_distribution 	client-46 	74
scalar tree_5_3_u10_r1_network.content_distribution 	client-47 	73
scalar tree_5_3_u10_r1_network.content_distribution 	client-48 	72
scalar tree_5_3_u10_r1_network.content_distribution 	client-49 	71
scalar tree_5_3_u10_r1_network.content_distribution 	client-50 	70
scalar tree_5_3_u10_r1_network.content_distribution 	client-51 	69
scalar tree_5_3_u10_r1_network.content_distribution 	client-52 	68
scalar tree_5_3_u10_r1_network.content_distribution 	client-53 	67
scalar tree_5_3_u10_r1_network.content_distribution 	client-54 	66
scalar tree_5_3_u10_r1_network.content_distribution 	client-55 	65
scalar tree_5_3_u10_r1_network.content_distribution 	client-56 	64
scalar tree_5_3_u10_r1_network.content_distribution 	client-57 	63
scalar tree_5_3_u10_r1_network.content_distribution 	client-58 	62
scalar tree_5_3_u10_r1_network.content_distribution 	client-59 	61
scalar tree_5_3_u10_r1_network.content_distribution 	client-60 	60
scalar tree_5_3_u10_r1_network.content_distribution 	client-61 	59
scalar tree_5_3_u10_r1_network.content_distribution 	client-62 	58
scalar tree_5_3_u10_r1_network.content_distribution 	client-63 	57
scalar tree_5_3_u10_r1_network.content_distribution 	client-64 	56
scalar tree_5_3_u10_r1_network.content_distribution 	client-65 	55
scalar tree_5_3_u10_r1_network.content_distribution 	client-66 	54
scalar tree_5_3_u10_r1_network.content_distribution 	client-67 	53
scalar tree_5_3_u10_r1_network.content_distribution 	client-68 	52
scalar tree_5_3_u10_r1_network.content_distribution 	client-69 	51
scalar tree_5_3_u10_r1_network.content_distribution 	client-70 	50
scalar tree_5_3_u10_r1_network.content_distribution 	client-71 	49
scalar tree_5_3_u10_r1_network.content_distribution 	client-72 	48
scalar tree_5_3_u10_r1_network.content_distribution 	client-73 	47
scalar tree_5_3_u10_r1_network.content_distribution 	client-74 	46
scalar tree_5_3_u10_r1_network.content_distribution 	client-75 	45
scalar tree_5_3_u10_r1_network.content_distribution 	client-76 	44
scalar tree_5_3_u10_r1_network.content_distribution 	client-77 	43
scalar tree_5_3_u10_r1_network.content_distribution 	client-78 	42
scalar tree_5_3_u10_r1_network.content_distribution 	client-79 	41
scalar tree_5_3_u10_r1_network.content_distribution 	client-80 	40
scalar tree_5_3_u10_r1_network.content_distribution 	repo-0_card 	100000
scalar tree_5_3_u10_r1_network.content_distribution 	repo-0_price 	0
scalar tree_5_3_u10_r1_network.statistics 	stabilization_time 	6434.4
scalar tree_5_3_u10_r1_network.statistics 	p_hit 	0.16180122939183
scalar tree_5_3_u10_r1_network.statistics 	interests 	31007.826446281
scalar tree_5_3_u10_r1_network.statistics 	data 	22976.429752066
scalar tree_5_3_u10_r1_network.statistics 	hdistance 	3.4993239155039
scalar tree_5_3_u10_r1_network.statistics 	avg_time 	0.005721931217
scalar tree_5_3_u10_r1_network.statistics 	downloads 	971800
scalar tree_5_3_u10_r1_network.statistics 	total_cost 	0
scalar tree_5_3_u10_r1_network.statistics 	total_replicas 	100000
scalar tree_5_3_u10_r1_network.statistics 	inner_hit 	0.36183988474995
scalar tree_5_3_u10_r1_network.node[0].core_layer 	interests[0] 	641170
scalar tree_5_3_u10_r1_network.node[0].core_layer 	repo_load[0] 	620164
scalar tree_5_3_u10_r1_network.node[0].core_layer 	data[0] 	0
scalar tree_5_3_u10_r1_network.node[0].core_layer 	repo_int[0] 	620164
scalar tree_5_3_u10_r1_network.node[0].content_store 	p_hit[0] 	0.032761982001653
scalar tree_5_3_u10_r1_network.node[0].content_store 	hits[0] 	21006
scalar tree_5_3_u10_r1_network.node[0].content_store 	misses[0] 	620164
scalar tree_5_3_u10_r1_network.node[0].content_store 	decision_yes[0] 	29
scalar tree_5_3_u10_r1_network.node[0].content_store 	decision_no[0] 	620135
scalar tree_5_3_u10_r1_network.node[0].content_store 	decision_ratio[0] 	4.6761824291639e-05
scalar tree_5_3_u10_r1_network.node[1].core_layer 	interests[1] 	532598
scalar tree_5_3_u10_r1_network.node[1].core_layer 	data[1] 	511937
scalar tree_5_3_u10_r1_network.node[1].content_store 	p_hit[1] 	0.038695226042907
scalar tree_5_3_u10_r1_network.node[1].content_store 	hits[1] 	20609
scalar tree_5_3_u10_r1_network.node[1].content_store 	misses[1] 	511989
scalar tree_5_3_u10_r1_network.node[1].content_store 	decision_yes[1] 	29
scalar tree_5_3_u10_r1_network.node[1].content_store 	decision_no[1] 	511908
scalar tree_5_3_u10_r1_network.node[1].content_store 	decision_ratio[1] 	5.6647595309579e-05
scalar tree_5_3_u10_r1_network.node[2].core_layer 	interests[2] 	126376
scalar tree_5_3_u10_r1_network.node[2].core_layer 	data[2] 	120529
scalar tree_5_3_u10_r1_network.node[2].content_store 	p_hit[2] 	0.04624295752358
scalar tree_5_3_u10_r1_network.node[2].content_store 	hits[2] 	5844
scalar tree_5_3_u10_r1_network.node[2].content_store 	misses[2] 	120532
scalar tree_5_3_u10_r1_network.node[2].content_store 	decision_yes[2] 	8
scalar tree_5_3_u10_r1_network.node[2].content_store 	decision_no[2] 	120521
scalar tree_5_3_u10_r1_network.node[2].content_store 	decision_ratio[2] 	6.6374067651768e-05
scalar tree_5_3_u10_r1_network.node[3].core_layer 	interests[3] 	8822
scalar tree_5_3_u10_r1_network.node[3].core_layer 	data[3] 	8704
scalar tree_5_3_u10_r1_network.node[3].content_store 	p_hit[3] 	0.013375651779642
scalar tree_5_3_u10_r1_network.node[3].content_store 	hits[3] 	118
scalar tree_5_3_u10_r1_network.node[3].content_store 	misses[3] 	8704
scalar tree_5_3_u10_r1_network.node[3].content_store 	decision_yes[3] 	1
scalar tree_5_3_u10_r1_network.node[3].content_store 	decision_no[3] 	8703
scalar tree_5_3_u10_r1_network.node[3].content_store 	decision_ratio[3] 	0.00011488970588235
scalar tree_5_3_u10_r1_network.node[4].core_layer 	interests[4] 	165261
scalar tree_5_3_u10_r1_network.node[4].core_layer 	data[4] 	155358
scalar tree_5_3_u10_r1_network.node[4].content_store 	p_hit[4] 	0.059850781491096
scalar tree_5_3_u10_r1_network.node[4].content_store 	hits[4] 	9891
scalar tree_5_3_u10_r1_network.node[4].content_store 	misses[4] 	155370
scalar tree_5_3_u10_r1_network.node[4].content_store 	decision_yes[4] 	13
scalar tree_5_3_u10_r1_network.node[4].content_store 	decision_no[4] 	155345
scalar tree_5_3_u10_r1_network.node[4].content_store 	decision_ratio[4] 	8.3677699249475e-05
scalar tree_5_3_u10_r1_network.node[5].core_layer 	interests[5] 	61808
scalar tree_5_3_u10_r1_network.node[5].core_layer 	data[5] 	58410
scalar tree_5_3_u10_r1_network.node[5].content_store 	p_hit[5] 	0.054944343774269
scalar tree_5_3_u10_r1_network.node[5].content_store 	hits[5] 	3396
scalar tree_5_3_u10_r1_network.node[5].content_store 	misses[5] 	58412
scalar tree_5_3_u10_r1_network.node[5].content_store 	decision_yes[5] 	7
scalar tree_5_3_u10_r1_network.node[5].content_store 	decision_no[5] 	58403
scalar tree_5_3_u10_r1_network.node[5].content_store 	decision_ratio[5] 	0.00011984249272385
scalar tree_5_3_u10_r1_network.node[6].core_layer 	interests[6] 	9151
scalar tree_5_3_u10_r1_network.node[6].core_layer 	data[6] 	8870
scalar tree_5_3_u10_r1_network.node[6].content_store 	p_hit[6] 	0.030707026554475
scalar tree_5_3_u10_r1_network.node[6].content_store 	hits[6] 	281
scalar tree_5_3_u10_r1_network.node[6].content_store 	misses[6] 	8870
scalar tree_5_3_u10_r1_network.node[6].content_store 	decision_yes[6] 	1
scalar tree_5_3_u10_r1_network.node[6].content_store 	decision_no[6] 	8869
scalar tree_5_3_u10_r1_network.node[6].content_store 	decision_ratio[6] 	0.00011273957158963
scalar tree_5_3_u10_r1_network.node[7].core_layer 	interests[7] 	164560
scalar tree_5_3_u10_r1_network.node[7].core_layer 	data[7] 	154879
scalar tree_5_3_u10_r1_network.node[7].content_store 	p_hit[7] 	0.058799222168206
scalar tree_5_3_u10_r1_network.node[7].content_store 	hits[7] 	9676
scalar tree_5_3_u10_r1_network.node[7].content_store 	misses[7] 	154884
scalar tree_5_3_u10_r1_network.node[7].content_store 	decision_yes[7] 	15
scalar tree_5_3_u10_r1_network.node[7].content_store 	decision_no[7] 	154864
scalar tree_5_3_u10_r1_network.node[7].content_store 	decision_ratio[7] 	9.6849798875251e-05
scalar tree_5_3_u10_r1_network.node[8].core_layer 	interests[8] 	61942
scalar tree_5_3_u10_r1_network.node[8].core_layer 	data[8] 	58481
scalar tree_5_3_u10_r1_network.node[8].content_store 	p_hit[8] 	0.055842562397081
scalar tree_5_3_u10_r1_network.node[8].content_store 	hits[8] 	3459
scalar tree_5_3_u10_r1_network.node[8].content_store 	misses[8] 	58483
scalar tree_5_3_u10_r1_network.node[8].content_store 	decision_yes[8] 	10
scalar tree_5_3_u10_r1_network.node[8].content_store 	decision_no[8] 	58471
scalar tree_5_3_u10_r1_network.node[8].content_store 	decision_ratio[8] 	0.00017099570800773
scalar tree_5_3_u10_r1_network.node[9].core_layer 	interests[9] 	9198
scalar tree_5_3_u10_r1_network.node[9].core_layer 	data[9] 	9121
scalar tree_5_3_u10_r1_network.node[9].content_store 	p_hit[9] 	0.0083713850837139
scalar tree_5_3_u10_r1_network.node[9].content_store 	hits[9] 	77
scalar tree_5_3_u10_r1_network.node[9].content_store 	misses[9] 	9121
scalar tree_5_3_u10_r1_network.node[9].content_store 	decision_yes[9] 	2
scalar tree_5_3_u10_r1_network.node[9].content_store 	decision_no[9] 	9119
scalar tree_5_3_u10_r1_network.node[9].content_store 	decision_ratio[9] 	0.00021927420239009
scalar tree_5_3_u10_r1_network.node[10].core_layer 	interests[10] 	164732
scalar tree_5_3_u10_r1_network.node[10].core_layer 	data[10] 	155080
scalar tree_5_3_u10_r1_network.node[10].content_store 	p_hit[10] 	0.058507151008911
scalar tree_5_3_u10_r1_network.node[10].content_store 	hits[10] 	9638
scalar tree_5_3_u10_r1_network.node[10].content_store 	misses[10] 	155094
scalar tree_5_3_u10_r1_network.node[10].content_store 	decision_yes[10] 	20
scalar tree_5_3_u10_r1_network.node[10].content_store 	decision_no[10] 	155060
scalar tree_5_3_u10_r1_network.node[10].content_store 	decision_ratio[10] 	0.0001289656951251
scalar tree_5_3_u10_r1_network.node[11].core_layer 	interests[11] 	61938
scalar tree_5_3_u10_r1_network.node[11].core_layer 	data[11] 	58774
scalar tree_5_3_u10_r1_network.node[11].content_store 	p_hit[11] 	0.051067196228487
scalar tree_5_3_u10_r1_network.node[11].content_store 	hits[11] 	3163
scalar tree_5_3_u10_r1_network.node[11].content_store 	misses[11] 	58775
scalar tree_5_3_u10_r1_network.node[11].content_store 	decision_yes[11] 	6
scalar tree_5_3_u10_r1_network.node[11].content_store 	decision_no[11] 	58768
scalar tree_5_3_u10_r1_network.node[11].content_store 	decision_ratio[11] 	0.00010208595637527
scalar tree_5_3_u10_r1_network.node[12].core_layer 	interests[12] 	9106
scalar tree_5_3_u10_r1_network.node[12].core_layer 	data[12] 	8822
scalar tree_5_3_u10_r1_network.node[12].content_store 	p_hit[12] 	0.03118822754228
scalar tree_5_3_u10_r1_network.node[12].content_store 	hits[12] 	284
scalar tree_5_3_u10_r1_network.node[12].content_store 	misses[12] 	8822
scalar tree_5_3_u10_r1_network.node[12].content_store 	decision_yes[12] 	2
scalar tree_5_3_u10_r1_network.node[12].content_store 	decision_no[12] 	8820
scalar tree_5_3_u10_r1_network.node[12].content_store 	decision_ratio[12] 	0.00022670596236681
scalar tree_5_3_u10_r1_network.node[13].core_layer 	interests[13] 	46956
scalar tree_5_3_u10_r1_network.node[13].core_layer 	data[13] 	43248
scalar tree_5_3_u10_r1_network.node[13].content_store 	p_hit[13] 	0.078946247550899
scalar tree_5_3_u10_r1_network.node[13].content_store 	hits[13] 	3707
scalar tree_5_3_u10_r1_network.node[13].content_store 	misses[13] 	43249
scalar tree_5_3_u10_r1_network.node[13].content_store 	decision_yes[13] 	3
scalar tree_5_3_u10_r1_network.node[13].content_store 	decision_no[13] 	43245
scalar tree_5_3_u10_r1_network.node[13].content_store 	decision_ratio[13] 	6.9367369589345e-05
scalar tree_5_3_u10_r1_network.node[14].core_layer 	interests[14] 	28294
scalar tree_5_3_u10_r1_network.node[14].core_layer 	data[14] 	26441
scalar tree_5_3_u10_r1_network.node[14].content_store 	p_hit[14] 	0.065455573619849
scalar tree_5_3_u10_r1_network.node[14].content_store 	hits[14] 	1852
scalar tree_5_3_u10_r1_network.node[14].content_store 	misses[14] 	26442
scalar tree_5_3_u10_r1_network.node[14].content_store 	decision_yes[14] 	5
scalar tree_5_3_u10_r1_network.node[14].content_store 	decision_no[14] 	26436
scalar tree_5_3_u10_r1_network.node[14].content_store 	decision_ratio[14] 	0.00018910026095836
scalar tree_5_3_u10_r1_network.node[15].core_layer 	interests[15] 	9470
scalar tree_5_3_u10_r1_network.node[15].core_layer 	data[15] 	9166
scalar tree_5_3_u10_r1_network.node[15].content_store 	p_hit[15] 	0.032101372756072
scalar tree_5_3_u10_r1_network.node[15].content_store 	hits[15] 	304
scalar tree_5_3_u10_r1_network.node[15].content_store 	misses[15] 	9166
scalar tree_5_3_u10_r1_network.node[15].content_store 	decision_yes[15] 	4
scalar tree_5_3_u10_r1_network.node[15].content_store 	decision_no[15] 	9162
scalar tree_5_3_u10_r1_network.node[15].content_store 	decision_ratio[15] 	0.00043639537420903
scalar tree_5_3_u10_r1_network.node[16].core_layer 	interests[16] 	46955
scalar tree_5_3_u10_r1_network.node[16].core_layer 	data[16] 	43104
scalar tree_5_3_u10_r1_network.node[16].content_store 	p_hit[16] 	0.081993397934192
scalar tree_5_3_u10_r1_network.node[16].content_store 	hits[16] 	3850
scalar tree_5_3_u10_r1_network.node[16].content_store 	misses[16] 	43105
scalar tree_5_3_u10_r1_network.node[16].content_store 	decision_yes[16] 	3
scalar tree_5_3_u10_r1_network.node[16].content_store 	decision_no[16] 	43101
scalar tree_5_3_u10_r1_network.node[16].content_store 	decision_ratio[16] 	6.9599109131403e-05
scalar tree_5_3_u10_r1_network.node[17].core_layer 	interests[17] 	28504
scalar tree_5_3_u10_r1_network.node[17].core_layer 	data[17] 	26601
scalar tree_5_3_u10_r1_network.node[17].content_store 	p_hit[17] 	0.066762559640752
scalar tree_5_3_u10_r1_network.node[17].content_store 	hits[17] 	1903
scalar tree_5_3_u10_r1_network.node[17].content_store 	misses[17] 	26601
scalar tree_5_3_u10_r1_network.node[17].content_store 	decision_yes[17] 	2
scalar tree_5_3_u10_r1_network.node[17].content_store 	decision_no[17] 	26599
scalar tree_5_3_u10_r1_network.node[17].content_store 	decision_ratio[17] 	7.5185143415661e-05
scalar tree_5_3_u10_r1_network.node[18].core_layer 	interests[18] 	9291
scalar tree_5_3_u10_r1_network.node[18].core_layer 	data[18] 	8968
scalar tree_5_3_u10_r1_network.node[18].content_store 	p_hit[18] 	0.034764826175869
scalar tree_5_3_u10_r1_network.node[18].content_store 	hits[18] 	323
scalar tree_5_3_u10_r1_network.node[18].content_store 	misses[18] 	8968
scalar tree_5_3_u10_r1_network.node[18].content_store 	decision_yes[18] 	1
scalar tree_5_3_u10_r1_network.node[18].content_store 	decision_no[18] 	8967
scalar tree_5_3_u10_r1_network.node[18].content_store 	decision_ratio[18] 	0.00011150758251561
scalar tree_5_3_u10_r1_network.node[19].core_layer 	interests[19] 	47077
scalar tree_5_3_u10_r1_network.node[19].core_layer 	data[19] 	43303
scalar tree_5_3_u10_r1_network.node[19].content_store 	p_hit[19] 	0.080124052084882
scalar tree_5_3_u10_r1_network.node[19].content_store 	hits[19] 	3772
scalar tree_5_3_u10_r1_network.node[19].content_store 	misses[19] 	43305
scalar tree_5_3_u10_r1_network.node[19].content_store 	decision_yes[19] 	4
scalar tree_5_3_u10_r1_network.node[19].content_store 	decision_no[19] 	43299
scalar tree_5_3_u10_r1_network.node[19].content_store 	decision_ratio[19] 	9.2372352954761e-05
scalar tree_5_3_u10_r1_network.node[20].core_layer 	interests[20] 	28069
scalar tree_5_3_u10_r1_network.node[20].core_layer 	data[20] 	26239
scalar tree_5_3_u10_r1_network.node[20].content_store 	p_hit[20] 	0.065125227118886
scalar tree_5_3_u10_r1_network.node[20].content_store 	hits[20] 	1828
scalar tree_5_3_u10_r1_network.node[20].content_store 	misses[20] 	26241
scalar tree_5_3_u10_r1_network.node[20].content_store 	decision_yes[20] 	6
scalar tree_5_3_u10_r1_network.node[20].content_store 	decision_no[20] 	26233
scalar tree_5_3_u10_r1_network.node[20].content_store 	decision_ratio[20] 	0.00022866725103853
scalar tree_5_3_u10_r1_network.node[21].core_layer 	interests[21] 	9393
scalar tree_5_3_u10_r1_network.node[21].core_layer 	data[21] 	9151
scalar tree_5_3_u10_r1_network.node[21].content_store 	p_hit[21] 	0.025763866709252
scalar tree_5_3_u10_r1_network.node[21].content_store 	hits[21] 	242
scalar tree_5_3_u10_r1_network.node[21].content_store 	misses[21] 	9151
scalar tree_5_3_u10_r1_network.node[21].content_store 	decision_yes[21] 	2
scalar tree_5_3_u10_r1_network.node[21].content_store 	decision_no[21] 	9149
scalar tree_5_3_u10_r1_network.node[21].content_store 	decision_ratio[21] 	0.00021855534914217
scalar tree_5_3_u10_r1_network.node[22].core_layer 	interests[22] 	47175
scalar tree_5_3_u10_r1_network.node[22].core_layer 	data[22] 	42791
scalar tree_5_3_u10_r1_network.node[22].content_store 	p_hit[22] 	0.092909379968204
scalar tree_5_3_u10_r1_network.node[22].content_store 	hits[22] 	4383
scalar tree_5_3_u10_r1_network.node[22].content_store 	misses[22] 	42792
scalar tree_5_3_u10_r1_network.node[22].content_store 	decision_yes[22] 	6
scalar tree_5_3_u10_r1_network.node[22].content_store 	decision_no[22] 	42785
scalar tree_5_3_u10_r1_network.node[22].content_store 	decision_ratio[22] 	0.000140216400645
scalar tree_5_3_u10_r1_network.node[23].core_layer 	interests[23] 	28223
scalar tree_5_3_u10_r1_network.node[23].core_layer 	data[23] 	26647
scalar tree_5_3_u10_r1_network.node[23].content_store 	p_hit[23] 	0.055876412854764
scalar tree_5_3_u10_r1_network.node[23].content_store 	hits[23] 	1577
scalar tree_5_3_u10_r1_network.node[23].content_store 	misses[23] 	26646
scalar tree_5_3_u10_r1_network.node[23].content_store 	decision_yes[23] 	6
scalar tree_5_3_u10_r1_network.node[23].content_store 	decision_no[23] 	26641
scalar tree_5_3_u10_r1_network.node[23].content_store 	decision_ratio[23] 	0.00022516605996923
scalar tree_5_3_u10_r1_network.node[24].core_layer 	interests[24] 	9398
scalar tree_5_3_u10_r1_network.node[24].core_layer 	data[24] 	9047
scalar tree_5_3_u10_r1_network.node[24].content_store 	p_hit[24] 	0.037348371994041
scalar tree_5_3_u10_r1_network.node[24].content_store 	hits[24] 	351
scalar tree_5_3_u10_r1_network.node[24].content_store 	misses[24] 	9047
scalar tree_5_3_u10_r1_network.node[24].content_store 	decision_yes[24] 	3
scalar tree_5_3_u10_r1_network.node[24].content_store 	decision_no[24] 	9044
scalar tree_5_3_u10_r1_network.node[24].content_store 	decision_ratio[24] 	0.0003316016359014
scalar tree_5_3_u10_r1_network.node[25].core_layer 	interests[25] 	47589
scalar tree_5_3_u10_r1_network.node[25].core_layer 	data[25] 	43224
scalar tree_5_3_u10_r1_network.node[25].content_store 	p_hit[25] 	0.091701863876106
scalar tree_5_3_u10_r1_network.node[25].content_store 	hits[25] 	4364
scalar tree_5_3_u10_r1_network.node[25].content_store 	misses[25] 	43225
scalar tree_5_3_u10_r1_network.node[25].content_store 	decision_yes[25] 	3
scalar tree_5_3_u10_r1_network.node[25].content_store 	decision_no[25] 	43221
scalar tree_5_3_u10_r1_network.node[25].content_store 	decision_ratio[25] 	6.9405885619101e-05
scalar tree_5_3_u10_r1_network.node[26].core_layer 	interests[26] 	28642
scalar tree_5_3_u10_r1_network.node[26].core_layer 	data[26] 	26522
scalar tree_5_3_u10_r1_network.node[26].content_store 	p_hit[26] 	0.073982263808393
scalar tree_5_3_u10_r1_network.node[26].content_store 	hits[26] 	2119
scalar tree_5_3_u10_r1_network.node[26].content_store 	misses[26] 	26523
scalar tree_5_3_u10_r1_network.node[26].content_store 	decision_yes[26] 	2
scalar tree_5_3_u10_r1_network.node[26].content_store 	decision_no[26] 	26520
scalar tree_5_3_u10_r1_network.node[26].content_store 	decision_ratio[26] 	7.5409094336777e-05
scalar tree_5_3_u10_r1_network.node[27].core_layer 	interests[27] 	9364
scalar tree_5_3_u10_r1_network.node[27].core_layer 	data[27] 	9097
scalar tree_5_3_u10_r1_network.node[27].content_store 	p_hit[27] 	0.028513455788125
scalar tree_5_3_u10_r1_network.node[27].content_store 	hits[27] 	267
scalar tree_5_3_u10_r1_network.node[27].content_store 	misses[27] 	9097
scalar tree_5_3_u10_r1_network.node[27].content_store 	decision_yes[27] 	4
scalar tree_5_3_u10_r1_network.node[27].content_store 	decision_no[27] 	9093
scalar tree_5_3_u10_r1_network.node[27].content_store 	decision_ratio[27] 	0.00043970539738375
scalar tree_5_3_u10_r1_network.node[28].core_layer 	interests[28] 	47146
scalar tree_5_3_u10_r1_network.node[28].core_layer 	data[28] 	42852
scalar tree_5_3_u10_r1_network.node[28].content_store 	p_hit[28] 	0.091078776566411
scalar tree_5_3_u10_r1_network.node[28].content_store 	hits[28] 	4294
scalar tree_5_3_u10_r1_network.node[28].content_store 	misses[28] 	42852
scalar tree_5_3_u10_r1_network.node[28].content_store 	decision_yes[28] 	6
scalar tree_5_3_u10_r1_network.node[28].content_store 	decision_no[28] 	42846
scalar tree_5_3_u10_r1_network.node[28].content_store 	decision_ratio[28] 	0.00014001680201624
scalar tree_5_3_u10_r1_network.node[29].core_layer 	interests[29] 	28194
scalar tree_5_3_u10_r1_network.node[29].core_layer 	data[29] 	26323
scalar tree_5_3_u10_r1_network.node[29].content_store 	p_hit[29] 	0.066361637227779
scalar tree_5_3_u10_r1_network.node[29].content_store 	hits[29] 	1871
scalar tree_5_3_u10_r1_network.node[29].content_store 	misses[29] 	26323
scalar tree_5_3_u10_r1_network.node[29].content_store 	decision_yes[29] 	5
scalar tree_5_3_u10_r1_network.node[29].content_store 	decision_no[29] 	26318
scalar tree_5_3_u10_r1_network.node[29].content_store 	decision_ratio[29] 	0.00018994795426053
scalar tree_5_3_u10_r1_network.node[30].core_layer 	interests[30] 	9621
scalar tree_5_3_u10_r1_network.node[30].core_layer 	data[30] 	9198
scalar tree_5_3_u10_r1_network.node[30].content_store 	p_hit[30] 	0.043966323666978
scalar tree_5_3_u10_r1_network.node[30].content_store 	hits[30] 	423
scalar tree_5_3_u10_r1_network.node[30].content_store 	misses[30] 	9198
scalar tree_5_3_u10_r1_network.node[30].content_store 	decision_yes[30] 	1
scalar tree_5_3_u10_r1_network.node[30].content_store 	decision_no[30] 	9197
scalar tree_5_3_u10_r1_network.node[30].content_store 	decision_ratio[30] 	0.00010871928680148
scalar tree_5_3_u10_r1_network.node[31].core_layer 	interests[31] 	47342
scalar tree_5_3_u10_r1_network.node[31].core_layer 	data[31] 	43053
scalar tree_5_3_u10_r1_network.node[31].content_store 	p_hit[31] 	0.090532719361244
scalar tree_5_3_u10_r1_network.node[31].content_store 	hits[31] 	4286
scalar tree_5_3_u10_r1_network.node[31].content_store 	misses[31] 	43056
scalar tree_5_3_u10_r1_network.node[31].content_store 	decision_yes[31] 	4
scalar tree_5_3_u10_r1_network.node[31].content_store 	decision_no[31] 	43049
scalar tree_5_3_u10_r1_network.node[31].content_store 	decision_ratio[31] 	9.2908740389752e-05
scalar tree_5_3_u10_r1_network.node[32].core_layer 	interests[32] 	28441
scalar tree_5_3_u10_r1_network.node[32].core_layer 	data[32] 	26516
scalar tree_5_3_u10_r1_network.node[32].content_store 	p_hit[32] 	0.067648816848915
scalar tree_5_3_u10_r1_network.node[32].content_store 	hits[32] 	1924
scalar tree_5_3_u10_r1_network.node[32].content_store 	misses[32] 	26517
scalar tree_5_3_u10_r1_network.node[32].content_store 	decision_yes[32] 	4
scalar tree_5_3_u10_r1_network.node[32].content_store 	decision_no[32] 	26512
scalar tree_5_3_u10_r1_network.node[32].content_store 	decision_ratio[32] 	0.00015085231558304
scalar tree_5_3_u10_r1_network.node[33].core_layer 	interests[33] 	9228
scalar tree_5_3_u10_r1_network.node[33].core_layer 	data[33] 	8847
scalar tree_5_3_u10_r1_network.node[33].content_store 	p_hit[33] 	0.041287386215865
scalar tree_5_3_u10_r1_network.node[33].content_store 	hits[33] 	381
scalar tree_5_3_u10_r1_network.node[33].content_store 	misses[33] 	8847
scalar tree_5_3_u10_r1_network.node[33].content_store 	decision_yes[33] 	2
scalar tree_5_3_u10_r1_network.node[33].content_store 	decision_no[33] 	8845
scalar tree_5_3_u10_r1_network.node[33].content_store 	decision_ratio[33] 	0.0002260653328812
scalar tree_5_3_u10_r1_network.node[34].core_layer 	interests[34] 	46865
scalar tree_5_3_u10_r1_network.node[34].core_layer 	data[34] 	43192
scalar tree_5_3_u10_r1_network.node[34].content_store 	p_hit[34] 	0.078352715245919
scalar tree_5_3_u10_r1_network.node[34].content_store 	hits[34] 	3672
scalar tree_5_3_u10_r1_network.node[34].content_store 	misses[34] 	43193
scalar tree_5_3_u10_r1_network.node[34].content_store 	decision_yes[34] 	8
scalar tree_5_3_u10_r1_network.node[34].content_store 	decision_no[34] 	43184
scalar tree_5_3_u10_r1_network.node[34].content_store 	decision_ratio[34] 	0.00018521948508983
scalar tree_5_3_u10_r1_network.node[35].core_layer 	interests[35] 	28288
scalar tree_5_3_u10_r1_network.node[35].core_layer 	data[35] 	26434
scalar tree_5_3_u10_r1_network.node[35].content_store 	p_hit[35] 	0.065540158371041
scalar tree_5_3_u10_r1_network.node[35].content_store 	hits[35] 	1854
scalar tree_5_3_u10_r1_network.node[35].content_store 	misses[35] 	26434
scalar tree_5_3_u10_r1_network.node[35].content_store 	decision_yes[35] 	3
scalar tree_5_3_u10_r1_network.node[35].content_store 	decision_no[35] 	26431
scalar tree_5_3_u10_r1_network.node[35].content_store 	decision_ratio[35] 	0.00011349020201256
scalar tree_5_3_u10_r1_network.node[36].core_layer 	interests[36] 	9592
scalar tree_5_3_u10_r1_network.node[36].core_layer 	data[36] 	9225
scalar tree_5_3_u10_r1_network.node[36].content_store 	p_hit[36] 	0.038156797331109
scalar tree_5_3_u10_r1_network.node[36].content_store 	hits[36] 	366
scalar tree_5_3_u10_r1_network.node[36].content_store 	misses[36] 	9226
scalar tree_5_3_u10_r1_network.node[36].content_store 	decision_yes[36] 	2
scalar tree_5_3_u10_r1_network.node[36].content_store 	decision_no[36] 	9223
scalar tree_5_3_u10_r1_network.node[36].content_store 	decision_ratio[36] 	0.00021680216802168
scalar tree_5_3_u10_r1_network.node[37].core_layer 	interests[37] 	46692
scalar tree_5_3_u10_r1_network.node[37].core_layer 	data[37] 	43123
scalar tree_5_3_u10_r1_network.node[37].content_store 	p_hit[37] 	0.076394243125161
scalar tree_5_3_u10_r1_network.node[37].content_store 	hits[37] 	3567
scalar tree_5_3_u10_r1_network.node[37].content_store 	misses[37] 	43125
scalar tree_5_3_u10_r1_network.node[37].content_store 	decision_yes[37] 	5
scalar tree_5_3_u10_r1_network.node[37].content_store 	decision_no[37] 	43118
scalar tree_5_3_u10_r1_network.node[37].content_store 	decision_ratio[37] 	0.00011594740625652
scalar tree_5_3_u10_r1_network.node[38].core_layer 	interests[38] 	28228
scalar tree_5_3_u10_r1_network.node[38].core_layer 	data[38] 	26278
scalar tree_5_3_u10_r1_network.node[38].content_store 	p_hit[38] 	0.069044919937651
scalar tree_5_3_u10_r1_network.node[38].content_store 	hits[38] 	1949
scalar tree_5_3_u10_r1_network.node[38].content_store 	misses[38] 	26279
scalar tree_5_3_u10_r1_network.node[38].content_store 	decision_yes[38] 	6
scalar tree_5_3_u10_r1_network.node[38].content_store 	decision_no[38] 	26272
scalar tree_5_3_u10_r1_network.node[38].content_store 	decision_ratio[38] 	0.00022832787883401
scalar tree_5_3_u10_r1_network.node[39].core_layer 	interests[39] 	9445
scalar tree_5_3_u10_r1_network.node[39].core_layer 	data[39] 	9106
scalar tree_5_3_u10_r1_network.node[39].content_store 	p_hit[39] 	0.035892006352567
scalar tree_5_3_u10_r1_network.node[39].content_store 	hits[39] 	339
scalar tree_5_3_u10_r1_network.node[39].content_store 	misses[39] 	9106
scalar tree_5_3_u10_r1_network.node[39].content_store 	decision_yes[39] 	4
scalar tree_5_3_u10_r1_network.node[39].content_store 	decision_no[39] 	9102
scalar tree_5_3_u10_r1_network.node[39].content_store 	decision_ratio[39] 	0.00043927081045465
scalar tree_5_3_u10_r1_network.node[40].core_layer 	interests[40] 	11942
scalar tree_5_3_u10_r1_network.node[40].core_layer 	data[40] 	9405
scalar tree_5_3_u10_r1_network.node[40].content_store 	p_hit[40] 	0.21244347680456
scalar tree_5_3_u10_r1_network.node[40].content_store 	hits[40] 	2537
scalar tree_5_3_u10_r1_network.node[40].content_store 	misses[40] 	9405
scalar tree_5_3_u10_r1_network.node[40].content_store 	decision_yes[40] 	3
scalar tree_5_3_u10_r1_network.node[40].content_store 	decision_no[40] 	9402
scalar tree_5_3_u10_r1_network.node[40].content_store 	decision_ratio[40] 	0.00031897926634769
scalar tree_5_3_u10_r1_network.node[41].core_layer 	interests[41] 	12142
scalar tree_5_3_u10_r1_network.node[41].core_layer 	data[41] 	9466
scalar tree_5_3_u10_r1_network.node[41].content_store 	p_hit[41] 	0.22047438642728
scalar tree_5_3_u10_r1_network.node[41].content_store 	hits[41] 	2677
scalar tree_5_3_u10_r1_network.node[41].content_store 	misses[41] 	9465
scalar tree_5_3_u10_r1_network.node[41].content_store 	decision_yes[41] 	4
scalar tree_5_3_u10_r1_network.node[41].content_store 	decision_no[41] 	9462
scalar tree_5_3_u10_r1_network.node[41].content_store 	decision_ratio[41] 	0.00042256496936404
scalar tree_5_3_u10_r1_network.node[42].core_layer 	interests[42] 	11872
scalar tree_5_3_u10_r1_network.node[42].core_layer 	data[42] 	9363
scalar tree_5_3_u10_r1_network.node[42].content_store 	p_hit[42] 	0.2114218328841
scalar tree_5_3_u10_r1_network.node[42].content_store 	hits[42] 	2510
scalar tree_5_3_u10_r1_network.node[42].content_store 	misses[42] 	9362
scalar tree_5_3_u10_r1_network.node[42].content_store 	decision_yes[42] 	1
scalar tree_5_3_u10_r1_network.node[42].content_store 	decision_no[42] 	9362
scalar tree_5_3_u10_r1_network.node[42].content_store 	decision_ratio[42] 	0.00010680337498665
scalar tree_5_3_u10_r1_network.node[43].core_layer 	interests[43] 	11986
scalar tree_5_3_u10_r1_network.node[43].core_layer 	data[43] 	9380
scalar tree_5_3_u10_r1_network.node[43].content_store 	p_hit[43] 	0.217420323711
scalar tree_5_3_u10_r1_network.node[43].content_store 	hits[43] 	2606
scalar tree_5_3_u10_r1_network.node[43].content_store 	misses[43] 	9380
scalar tree_5_3_u10_r1_network.node[43].content_store 	decision_yes[43] 	2
scalar tree_5_3_u10_r1_network.node[43].content_store 	decision_no[43] 	9378
scalar tree_5_3_u10_r1_network.node[43].content_store 	decision_ratio[43] 	0.00021321961620469
scalar tree_5_3_u10_r1_network.node[44].core_layer 	interests[44] 	11955
scalar tree_5_3_u10_r1_network.node[44].core_layer 	data[44] 	9283
scalar tree_5_3_u10_r1_network.node[44].content_store 	p_hit[44] 	0.22350480970305
scalar tree_5_3_u10_r1_network.node[44].content_store 	hits[44] 	2672
scalar tree_5_3_u10_r1_network.node[44].content_store 	misses[44] 	9283
scalar tree_5_3_u10_r1_network.node[44].content_store 	decision_yes[44] 	3
scalar tree_5_3_u10_r1_network.node[44].content_store 	decision_no[44] 	9280
scalar tree_5_3_u10_r1_network.node[44].content_store 	decision_ratio[44] 	0.00032317138855973
scalar tree_5_3_u10_r1_network.node[45].core_layer 	interests[45] 	12046
scalar tree_5_3_u10_r1_network.node[45].core_layer 	data[45] 	9503
scalar tree_5_3_u10_r1_network.node[45].content_store 	p_hit[45] 	0.21110742155072
scalar tree_5_3_u10_r1_network.node[45].content_store 	hits[45] 	2543
scalar tree_5_3_u10_r1_network.node[45].content_store 	misses[45] 	9503
scalar tree_5_3_u10_r1_network.node[45].content_store 	decision_yes[45] 	4
scalar tree_5_3_u10_r1_network.node[45].content_store 	decision_no[45] 	9499
scalar tree_5_3_u10_r1_network.node[45].content_store 	decision_ratio[45] 	0.0004209197095654
scalar tree_5_3_u10_r1_network.node[46].core_layer 	interests[46] 	12047
scalar tree_5_3_u10_r1_network.node[46].core_layer 	data[46] 	9344
scalar tree_5_3_u10_r1_network.node[46].content_store 	p_hit[46] 	0.22437121275006
scalar tree_5_3_u10_r1_network.node[46].content_store 	hits[46] 	2703
scalar tree_5_3_u10_r1_network.node[46].content_store 	misses[46] 	9344
scalar tree_5_3_u10_r1_network.node[46].content_store 	decision_yes[46] 	4
scalar tree_5_3_u10_r1_network.node[46].content_store 	decision_no[46] 	9340
scalar tree_5_3_u10_r1_network.node[46].content_store 	decision_ratio[46] 	0.00042808219178082
scalar tree_5_3_u10_r1_network.node[47].core_layer 	interests[47] 	11913
scalar tree_5_3_u10_r1_network.node[47].core_layer 	data[47] 	9508
scalar tree_5_3_u10_r1_network.node[47].content_store 	p_hit[47] 	0.20188029883321
scalar tree_5_3_u10_r1_network.node[47].content_store 	hits[47] 	2405
scalar tree_5_3_u10_r1_network.node[47].content_store 	misses[47] 	9508
scalar tree_5_3_u10_r1_network.node[47].content_store 	decision_yes[47] 	5
scalar tree_5_3_u10_r1_network.node[47].content_store 	decision_no[47] 	9503
scalar tree_5_3_u10_r1_network.node[47].content_store 	decision_ratio[47] 	0.0005258729490955
scalar tree_5_3_u10_r1_network.node[48].core_layer 	interests[48] 	12208
scalar tree_5_3_u10_r1_network.node[48].core_layer 	data[48] 	9470
scalar tree_5_3_u10_r1_network.node[48].content_store 	p_hit[48] 	0.22427916120577
scalar tree_5_3_u10_r1_network.node[48].content_store 	hits[48] 	2738
scalar tree_5_3_u10_r1_network.node[48].content_store 	misses[48] 	9470
scalar tree_5_3_u10_r1_network.node[48].content_store 	decision_yes[48] 	4
scalar tree_5_3_u10_r1_network.node[48].content_store 	decision_no[48] 	9466
scalar tree_5_3_u10_r1_network.node[48].content_store 	decision_ratio[48] 	0.00042238648363252
scalar tree_5_3_u10_r1_network.node[49].core_layer 	interests[49] 	11958
scalar tree_5_3_u10_r1_network.node[49].core_layer 	data[49] 	9484
scalar tree_5_3_u10_r1_network.node[49].content_store 	p_hit[49] 	0.20697441043653
scalar tree_5_3_u10_r1_network.node[49].content_store 	hits[49] 	2475
scalar tree_5_3_u10_r1_network.node[49].content_store 	misses[49] 	9483
scalar tree_5_3_u10_r1_network.node[49].content_store 	decision_yes[49] 	3
scalar tree_5_3_u10_r1_network.node[49].content_store 	decision_no[49] 	9481
scalar tree_5_3_u10_r1_network.node[49].content_store 	decision_ratio[49] 	0.00031632222690848
scalar tree_5_3_u10_r1_network.node[50].core_layer 	interests[50] 	12136
scalar tree_5_3_u10_r1_network.node[50].core_layer 	data[50] 	9494
scalar tree_5_3_u10_r1_network.node[50].content_store 	p_hit[50] 	0.2176994067238
scalar tree_5_3_u10_r1_network.node[50].content_store 	hits[50] 	2642
scalar tree_5_3_u10_r1_network.node[50].content_store 	misses[50] 	9494
scalar tree_5_3_u10_r1_network.node[50].content_store 	decision_yes[50] 	3
scalar tree_5_3_u10_r1_network.node[50].content_store 	decision_no[50] 	9491
scalar tree_5_3_u10_r1_network.node[50].content_store 	decision_ratio[50] 	0.00031598904571308
scalar tree_5_3_u10_r1_network.node[51].core_layer 	interests[51] 	11890
scalar tree_5_3_u10_r1_network.node[51].core_layer 	data[51] 	9323
scalar tree_5_3_u10_r1_network.node[51].content_store 	p_hit[51] 	0.21581160639193
scalar tree_5_3_u10_r1_network.node[51].content_store 	hits[51] 	2566
scalar tree_5_3_u10_r1_network.node[51].content_store 	misses[51] 	9324
scalar tree_5_3_u10_r1_network.node[51].content_store 	decision_yes[51] 	0
scalar tree_5_3_u10_r1_network.node[51].content_store 	decision_no[51] 	9323
scalar tree_5_3_u10_r1_network.node[51].content_store 	decision_ratio[51] 	0
scalar tree_5_3_u10_r1_network.node[52].core_layer 	interests[52] 	11927
scalar tree_5_3_u10_r1_network.node[52].core_layer 	data[52] 	9309
scalar tree_5_3_u10_r1_network.node[52].content_store 	p_hit[52] 	0.21950197031944
scalar tree_5_3_u10_r1_network.node[52].content_store 	hits[52] 	2618
scalar tree_5_3_u10_r1_network.node[52].content_store 	misses[52] 	9309
scalar tree_5_3_u10_r1_network.node[52].content_store 	decision_yes[52] 	1
scalar tree_5_3_u10_r1_network.node[52].content_store 	decision_no[52] 	9308
scalar tree_5_3_u10_r1_network.node[52].content_store 	decision_ratio[52] 	0.00010742292405199
scalar tree_5_3_u10_r1_network.node[53].core_layer 	interests[53] 	12030
scalar tree_5_3_u10_r1_network.node[53].core_layer 	data[53] 	9590
scalar tree_5_3_u10_r1_network.node[53].content_store 	p_hit[53] 	0.20282626766417
scalar tree_5_3_u10_r1_network.node[53].content_store 	hits[53] 	2440
scalar tree_5_3_u10_r1_network.node[53].content_store 	misses[53] 	9590
scalar tree_5_3_u10_r1_network.node[53].content_store 	decision_yes[53] 	3
scalar tree_5_3_u10_r1_network.node[53].content_store 	decision_no[53] 	9587
scalar tree_5_3_u10_r1_network.node[53].content_store 	decision_ratio[53] 	0.00031282586027112
scalar tree_5_3_u10_r1_network.node[54].core_layer 	interests[54] 	11954
scalar tree_5_3_u10_r1_network.node[54].core_layer 	data[54] 	9421
scalar tree_5_3_u10_r1_network.node[54].content_store 	p_hit[54] 	0.21189559979923
scalar tree_5_3_u10_r1_network.node[54].content_store 	hits[54] 	2533
scalar tree_5_3_u10_r1_network.node[54].content_store 	misses[54] 	9421
scalar tree_5_3_u10_r1_network.node[54].content_store 	decision_yes[54] 	1
scalar tree_5_3_u10_r1_network.node[54].content_store 	decision_no[54] 	9420
scalar tree_5_3_u10_r1_network.node[54].content_store 	decision_ratio[54] 	0.00010614584439019
scalar tree_5_3_u10_r1_network.node[55].core_layer 	interests[55] 	11996
scalar tree_5_3_u10_r1_network.node[55].core_layer 	data[55] 	9346
scalar tree_5_3_u10_r1_network.node[55].content_store 	p_hit[55] 	0.22090696898966
scalar tree_5_3_u10_r1_network.node[55].content_store 	hits[55] 	2650
scalar tree_5_3_u10_r1_network.node[55].content_store 	misses[55] 	9346
scalar tree_5_3_u10_r1_network.node[55].content_store 	decision_yes[55] 	1
scalar tree_5_3_u10_r1_network.node[55].content_store 	decision_no[55] 	9345
scalar tree_5_3_u10_r1_network.node[55].content_store 	decision_ratio[55] 	0.00010699764605179
scalar tree_5_3_u10_r1_network.node[56].core_layer 	interests[56] 	12069
scalar tree_5_3_u10_r1_network.node[56].core_layer 	data[56] 	9493
scalar tree_5_3_u10_r1_network.node[56].content_store 	p_hit[56] 	0.21343939017317
scalar tree_5_3_u10_r1_network.node[56].content_store 	hits[56] 	2576
scalar tree_5_3_u10_r1_network.node[56].content_store 	misses[56] 	9493
scalar tree_5_3_u10_r1_network.node[56].content_store 	decision_yes[56] 	4
scalar tree_5_3_u10_r1_network.node[56].content_store 	decision_no[56] 	9489
scalar tree_5_3_u10_r1_network.node[56].content_store 	decision_ratio[56] 	0.00042136310965975
scalar tree_5_3_u10_r1_network.node[57].core_layer 	interests[57] 	11801
scalar tree_5_3_u10_r1_network.node[57].core_layer 	data[57] 	9291
scalar tree_5_3_u10_r1_network.node[57].content_store 	p_hit[57] 	0.21269383950513
scalar tree_5_3_u10_r1_network.node[57].content_store 	hits[57] 	2510
scalar tree_5_3_u10_r1_network.node[57].content_store 	misses[57] 	9291
scalar tree_5_3_u10_r1_network.node[57].content_store 	decision_yes[57] 	3
scalar tree_5_3_u10_r1_network.node[57].content_store 	decision_no[57] 	9288
scalar tree_5_3_u10_r1_network.node[57].content_store 	decision_ratio[57] 	0.00032289312237649
scalar tree_5_3_u10_r1_network.node[58].core_layer 	interests[58] 	11964
scalar tree_5_3_u10_r1_network.node[58].core_layer 	data[58] 	9336
scalar tree_5_3_u10_r1_network.node[58].content_store 	p_hit[58] 	0.21965897693079
scalar tree_5_3_u10_r1_network.node[58].content_store 	hits[58] 	2628
scalar tree_5_3_u10_r1_network.node[58].content_store 	misses[58] 	9336
scalar tree_5_3_u10_r1_network.node[58].content_store 	decision_yes[58] 	3
scalar tree_5_3_u10_r1_network.node[58].content_store 	decision_no[58] 	9333
scalar tree_5_3_u10_r1_network.node[58].content_store 	decision_ratio[58] 	0.00032133676092545
scalar tree_5_3_u10_r1_network.node[59].core_layer 	interests[59] 	11888
scalar tree_5_3_u10_r1_network.node[59].core_layer 	data[59] 	9377
scalar tree_5_3_u10_r1_network.node[59].content_store 	p_hit[59] 	0.2110531628533
scalar tree_5_3_u10_r1_network.node[59].content_store 	hits[59] 	2509
scalar tree_5_3_u10_r1_network.node[59].content_store 	misses[59] 	9379
scalar tree_5_3_u10_r1_network.node[59].content_store 	decision_yes[59] 	5
scalar tree_5_3_u10_r1_network.node[59].content_store 	decision_no[59] 	9372
scalar tree_5_3_u10_r1_network.node[59].content_store 	decision_ratio[59] 	0.00053321957982297
scalar tree_5_3_u10_r1_network.node[60].core_layer 	interests[60] 	12187
scalar tree_5_3_u10_r1_network.node[60].core_layer 	data[60] 	9350
scalar tree_5_3_u10_r1_network.node[60].content_store 	p_hit[60] 	0.23278903749897
scalar tree_5_3_u10_r1_network.node[60].content_store 	hits[60] 	2837
scalar tree_5_3_u10_r1_network.node[60].content_store 	misses[60] 	9350
scalar tree_5_3_u10_r1_network.node[60].content_store 	decision_yes[60] 	3
scalar tree_5_3_u10_r1_network.node[60].content_store 	decision_no[60] 	9347
scalar tree_5_3_u10_r1_network.node[60].content_store 	decision_ratio[60] 	0.00032085561497326
scalar tree_5_3_u10_r1_network.node[61].core_layer 	interests[61] 	12006
scalar tree_5_3_u10_r1_network.node[61].core_layer 	data[61] 	9457
scalar tree_5_3_u10_r1_network.node[61].content_store 	p_hit[61] 	0.21222721972347
scalar tree_5_3_u10_r1_network.node[61].content_store 	hits[61] 	2548
scalar tree_5_3_u10_r1_network.node[61].content_store 	misses[61] 	9458
scalar tree_5_3_u10_r1_network.node[61].content_store 	decision_yes[61] 	4
scalar tree_5_3_u10_r1_network.node[61].content_store 	decision_no[61] 	9453
scalar tree_5_3_u10_r1_network.node[61].content_store 	decision_ratio[61] 	0.00042296711430686
scalar tree_5_3_u10_r1_network.node[62].core_layer 	interests[62] 	11959
scalar tree_5_3_u10_r1_network.node[62].core_layer 	data[62] 	9503
scalar tree_5_3_u10_r1_network.node[62].content_store 	p_hit[62] 	0.20528472280291
scalar tree_5_3_u10_r1_network.node[62].content_store 	hits[62] 	2455
scalar tree_5_3_u10_r1_network.node[62].content_store 	misses[62] 	9504
scalar tree_5_3_u10_r1_network.node[62].content_store 	decision_yes[62] 	4
scalar tree_5_3_u10_r1_network.node[62].content_store 	decision_no[62] 	9499
scalar tree_5_3_u10_r1_network.node[62].content_store 	decision_ratio[62] 	0.0004209197095654
scalar tree_5_3_u10_r1_network.node[63].core_layer 	interests[63] 	11760
scalar tree_5_3_u10_r1_network.node[63].core_layer 	data[63] 	9095
scalar tree_5_3_u10_r1_network.node[63].content_store 	p_hit[63] 	0.2266156462585
scalar tree_5_3_u10_r1_network.node[63].content_store 	hits[63] 	2665
scalar tree_5_3_u10_r1_network.node[63].content_store 	misses[63] 	9095
scalar tree_5_3_u10_r1_network.node[63].content_store 	decision_yes[63] 	2
scalar tree_5_3_u10_r1_network.node[63].content_store 	decision_no[63] 	9093
scalar tree_5_3_u10_r1_network.node[63].content_store 	decision_ratio[63] 	0.00021990104452996
scalar tree_5_3_u10_r1_network.node[64].core_layer 	interests[64] 	12135
scalar tree_5_3_u10_r1_network.node[64].core_layer 	data[64] 	9556
scalar tree_5_3_u10_r1_network.node[64].content_store 	p_hit[64] 	0.21252575195715
scalar tree_5_3_u10_r1_network.node[64].content_store 	hits[64] 	2579
scalar tree_5_3_u10_r1_network.node[64].content_store 	misses[64] 	9556
scalar tree_5_3_u10_r1_network.node[64].content_store 	decision_yes[64] 	2
scalar tree_5_3_u10_r1_network.node[64].content_store 	decision_no[64] 	9554
scalar tree_5_3_u10_r1_network.node[64].content_store 	decision_ratio[64] 	0.00020929259104228
scalar tree_5_3_u10_r1_network.node[65].core_layer 	interests[65] 	12103
scalar tree_5_3_u10_r1_network.node[65].core_layer 	data[65] 	9471
scalar tree_5_3_u10_r1_network.node[65].content_store 	p_hit[65] 	0.21746674378253
scalar tree_5_3_u10_r1_network.node[65].content_store 	hits[65] 	2632
scalar tree_5_3_u10_r1_network.node[65].content_store 	misses[65] 	9471
scalar tree_5_3_u10_r1_network.node[65].content_store 	decision_yes[65] 	2
scalar tree_5_3_u10_r1_network.node[65].content_store 	decision_no[65] 	9469
scalar tree_5_3_u10_r1_network.node[65].content_store 	decision_ratio[65] 	0.00021117094287826
scalar tree_5_3_u10_r1_network.node[66].core_layer 	interests[66] 	12145
scalar tree_5_3_u10_r1_network.node[66].core_layer 	data[66] 	9393
scalar tree_5_3_u10_r1_network.node[66].content_store 	p_hit[66] 	0.22659530671058
scalar tree_5_3_u10_r1_network.node[66].content_store 	hits[66] 	2752
scalar tree_5_3_u10_r1_network.node[66].content_store 	misses[66] 	9393
scalar tree_5_3_u10_r1_network.node[66].content_store 	decision_yes[66] 	5
scalar tree_5_3_u10_r1_network.node[66].content_store 	decision_no[66] 	9388
scalar tree_5_3_u10_r1_network.node[66].content_store 	decision_ratio[66] 	0.00053231129564569
scalar tree_5_3_u10_r1_network.node[67].core_layer 	interests[67] 	11947
scalar tree_5_3_u10_r1_network.node[67].core_layer 	data[67] 	9352
scalar tree_5_3_u10_r1_network.node[67].content_store 	p_hit[67] 	0.21720934125722
scalar tree_5_3_u10_r1_network.node[67].content_store 	hits[67] 	2595
scalar tree_5_3_u10_r1_network.node[67].content_store 	misses[67] 	9352
scalar tree_5_3_u10_r1_network.node[67].content_store 	decision_yes[67] 	2
scalar tree_5_3_u10_r1_network.node[67].content_store 	decision_no[67] 	9350
scalar tree_5_3_u10_r1_network.node[67].content_store 	decision_ratio[67] 	0.00021385799828914
scalar tree_5_3_u10_r1_network.node[68].core_layer 	interests[68] 	12068
scalar tree_5_3_u10_r1_network.node[68].core_layer 	data[68] 	9437
scalar tree_5_3_u10_r1_network.node[68].content_store 	p_hit[68] 	0.21801458402386
scalar tree_5_3_u10_r1_network.node[68].content_store 	hits[68] 	2631
scalar tree_5_3_u10_r1_network.node[68].content_store 	misses[68] 	9437
scalar tree_5_3_u10_r1_network.node[68].content_store 	decision_yes[68] 	1
scalar tree_5_3_u10_r1_network.node[68].content_store 	decision_no[68] 	9436
scalar tree_5_3_u10_r1_network.node[68].content_store 	decision_ratio[68] 	0.00010596587898697
scalar tree_5_3_u10_r1_network.node[69].core_layer 	interests[69] 	12163
scalar tree_5_3_u10_r1_network.node[69].core_layer 	data[69] 	9453
scalar tree_5_3_u10_r1_network.node[69].content_store 	p_hit[69] 	0.22280687330428
scalar tree_5_3_u10_r1_network.node[69].content_store 	hits[69] 	2710
scalar tree_5_3_u10_r1_network.node[69].content_store 	misses[69] 	9453
scalar tree_5_3_u10_r1_network.node[69].content_store 	decision_yes[69] 	3
scalar tree_5_3_u10_r1_network.node[69].content_store 	decision_no[69] 	9450
scalar tree_5_3_u10_r1_network.node[69].content_store 	decision_ratio[69] 	0.00031735956839099
scalar tree_5_3_u10_r1_network.node[70].core_layer 	interests[70] 	12074
scalar tree_5_3_u10_r1_network.node[70].core_layer 	data[70] 	9552
scalar tree_5_3_u10_r1_network.node[70].content_store 	p_hit[70] 	0.20887858207719
scalar tree_5_3_u10_r1_network.node[70].content_store 	hits[70] 	2522
scalar tree_5_3_u10_r1_network.node[70].content_store 	misses[70] 	9552
scalar tree_5_3_u10_r1_network.node[70].content_store 	decision_yes[70] 	1
scalar tree_5_3_u10_r1_network.node[70].content_store 	decision_no[70] 	9551
scalar tree_5_3_u10_r1_network.node[70].content_store 	decision_ratio[70] 	0.00010469011725293
scalar tree_5_3_u10_r1_network.node[71].core_layer 	interests[71] 	11877
scalar tree_5_3_u10_r1_network.node[71].core_layer 	data[71] 	9422
scalar tree_5_3_u10_r1_network.node[71].content_store 	p_hit[71] 	0.20678622547781
scalar tree_5_3_u10_r1_network.node[71].content_store 	hits[71] 	2456
scalar tree_5_3_u10_r1_network.node[71].content_store 	misses[71] 	9421
scalar tree_5_3_u10_r1_network.node[71].content_store 	decision_yes[71] 	3
scalar tree_5_3_u10_r1_network.node[71].content_store 	decision_no[71] 	9419
scalar tree_5_3_u10_r1_network.node[71].content_store 	decision_ratio[71] 	0.00031840373593717
scalar tree_5_3_u10_r1_network.node[72].core_layer 	interests[72] 	11921
scalar tree_5_3_u10_r1_network.node[72].core_layer 	data[72] 	9287
scalar tree_5_3_u10_r1_network.node[72].content_store 	p_hit[72] 	0.22095461790118
scalar tree_5_3_u10_r1_network.node[72].content_store 	hits[72] 	2634
scalar tree_5_3_u10_r1_network.node[72].content_store 	misses[72] 	9287
scalar tree_5_3_u10_r1_network.node[72].content_store 	decision_yes[72] 	2
scalar tree_5_3_u10_r1_network.node[72].content_store 	decision_no[72] 	9285
scalar tree_5_3_u10_r1_network.node[72].content_store 	decision_ratio[72] 	0.0002153547970281
scalar tree_5_3_u10_r1_network.node[73].core_layer 	interests[73] 	11844
scalar tree_5_3_u10_r1_network.node[73].core_layer 	data[73] 	9381
scalar tree_5_3_u10_r1_network.node[73].content_store 	p_hit[73] 	0.20795339412361
scalar tree_5_3_u10_r1_network.node[73].content_store 	hits[73] 	2463
scalar tree_5_3_u10_r1_network.node[73].content_store 	misses[73] 	9381
scalar tree_5_3_u10_r1_network.node[73].content_store 	decision_yes[73] 	3
scalar tree_5_3_u10_r1_network.node[73].content_store 	decision_no[73] 	9378
scalar tree_5_3_u10_r1_network.node[73].content_store 	decision_ratio[73] 	0.00031979533098817
scalar tree_5_3_u10_r1_network.node[74].core_layer 	interests[74] 	12033
scalar tree_5_3_u10_r1_network.node[74].core_layer 	data[74] 	9516
scalar tree_5_3_u10_r1_network.node[74].content_store 	p_hit[74] 	0.20925787417934
scalar tree_5_3_u10_r1_network.node[74].content_store 	hits[74] 	2518
scalar tree_5_3_u10_r1_network.node[74].content_store 	misses[74] 	9515
scalar tree_5_3_u10_r1_network.node[74].content_store 	decision_yes[74] 	0
scalar tree_5_3_u10_r1_network.node[74].content_store 	decision_no[74] 	9516
scalar tree_5_3_u10_r1_network.node[74].content_store 	decision_ratio[74] 	0
scalar tree_5_3_u10_r1_network.node[75].core_layer 	interests[75] 	11856
scalar tree_5_3_u10_r1_network.node[75].core_layer 	data[75] 	9398
scalar tree_5_3_u10_r1_network.node[75].content_store 	p_hit[75] 	0.20732118758435
scalar tree_5_3_u10_r1_network.node[75].content_store 	hits[75] 	2458
scalar tree_5_3_u10_r1_network.node[75].content_store 	misses[75] 	9398
scalar tree_5_3_u10_r1_network.node[75].content_store 	decision_yes[75] 	2
scalar tree_5_3_u10_r1_network.node[75].content_store 	decision_no[75] 	9396
scalar tree_5_3_u10_r1_network.node[75].content_store 	decision_ratio[75] 	0.00021281123643328
scalar tree_5_3_u10_r1_network.node[76].core_layer 	interests[76] 	11950
scalar tree_5_3_u10_r1_network.node[76].core_layer 	data[76] 	9338
scalar tree_5_3_u10_r1_network.node[76].content_store 	p_hit[76] 	0.21857740585774
scalar tree_5_3_u10_r1_network.node[76].content_store 	hits[76] 	2612
scalar tree_5_3_u10_r1_network.node[76].content_store 	misses[76] 	9338
scalar tree_5_3_u10_r1_network.node[76].content_store 	decision_yes[76] 	3
scalar tree_5_3_u10_r1_network.node[76].content_store 	decision_no[76] 	9335
scalar tree_5_3_u10_r1_network.node[76].content_store 	decision_ratio[76] 	0.00032126793745984
scalar tree_5_3_u10_r1_network.node[77].core_layer 	interests[77] 	11981
scalar tree_5_3_u10_r1_network.node[77].core_layer 	data[77] 	9538
scalar tree_5_3_u10_r1_network.node[77].content_store 	p_hit[77] 	0.20390618479259
scalar tree_5_3_u10_r1_network.node[77].content_store 	hits[77] 	2443
scalar tree_5_3_u10_r1_network.node[77].content_store 	misses[77] 	9538
scalar tree_5_3_u10_r1_network.node[77].content_store 	decision_yes[77] 	0
scalar tree_5_3_u10_r1_network.node[77].content_store 	decision_no[77] 	9538
scalar tree_5_3_u10_r1_network.node[77].content_store 	decision_ratio[77] 	0
scalar tree_5_3_u10_r1_network.node[78].core_layer 	interests[78] 	12160
scalar tree_5_3_u10_r1_network.node[78].core_layer 	data[78] 	9626
scalar tree_5_3_u10_r1_network.node[78].content_store 	p_hit[78] 	0.20847039473684
scalar tree_5_3_u10_r1_network.node[78].content_store 	hits[78] 	2535
scalar tree_5_3_u10_r1_network.node[78].content_store 	misses[78] 	9625
scalar tree_5_3_u10_r1_network.node[78].content_store 	decision_yes[78] 	4
scalar tree_5_3_u10_r1_network.node[78].content_store 	decision_no[78] 	9622
scalar tree_5_3_u10_r1_network.node[78].content_store 	decision_ratio[78] 	0.00041554124246831
scalar tree_5_3_u10_r1_network.node[79].core_layer 	interests[79] 	12060
scalar tree_5_3_u10_r1_network.node[79].core_layer 	data[79] 	9487
scalar tree_5_3_u10_r1_network.node[79].content_store 	p_hit[79] 	0.21334991708126
scalar tree_5_3_u10_r1_network.node[79].content_store 	hits[79] 	2573
scalar tree_5_3_u10_r1_network.node[79].content_store 	misses[79] 	9487
scalar tree_5_3_u10_r1_network.node[79].content_store 	decision_yes[79] 	3
scalar tree_5_3_u10_r1_network.node[79].content_store 	decision_no[79] 	9484
scalar tree_5_3_u10_r1_network.node[79].content_store 	decision_ratio[79] 	0.00031622219879836
scalar tree_5_3_u10_r1_network.node[80].core_layer 	interests[80] 	11993
scalar tree_5_3_u10_r1_network.node[80].core_layer 	data[80] 	9379
scalar tree_5_3_u10_r1_network.node[80].content_store 	p_hit[80] 	0.21796047694488
scalar tree_5_3_u10_r1_network.node[80].content_store 	hits[80] 	2614
scalar tree_5_3_u10_r1_network.node[80].content_store 	misses[80] 	9379
scalar tree_5_3_u10_r1_network.node[80].content_store 	decision_yes[80] 	2
scalar tree_5_3_u10_r1_network.node[80].content_store 	decision_no[80] 	9377
scalar tree_5_3_u10_r1_network.node[80].content_store 	decision_ratio[80] 	0.0002132423499307
scalar tree_5_3_u10_r1_network.node[81].core_layer 	interests[81] 	12123
scalar tree_5_3_u10_r1_network.node[81].core_layer 	data[81] 	9661
scalar tree_5_3_u10_r1_network.node[81].content_store 	p_hit[81] 	0.20300255712282
scalar tree_5_3_u10_r1_network.node[81].content_store 	hits[81] 	2461
scalar tree_5_3_u10_r1_network.node[81].content_store 	misses[81] 	9662
scalar tree_5_3_u10_r1_network.node[81].content_store 	decision_yes[81] 	3
scalar tree_5_3_u10_r1_network.node[81].content_store 	decision_no[81] 	9658
scalar tree_5_3_u10_r1_network.node[81].content_store 	decision_ratio[81] 	0.00031052686057344
scalar tree_5_3_u10_r1_network.node[82].core_layer 	interests[82] 	12137
scalar tree_5_3_u10_r1_network.node[82].core_layer 	data[82] 	9600
scalar tree_5_3_u10_r1_network.node[82].content_store 	p_hit[82] 	0.20894784543133
scalar tree_5_3_u10_r1_network.node[82].content_store 	hits[82] 	2536
scalar tree_5_3_u10_r1_network.node[82].content_store 	misses[82] 	9601
scalar tree_5_3_u10_r1_network.node[82].content_store 	decision_yes[82] 	2
scalar tree_5_3_u10_r1_network.node[82].content_store 	decision_no[82] 	9598
scalar tree_5_3_u10_r1_network.node[82].content_store 	decision_ratio[82] 	0.00020833333333333
scalar tree_5_3_u10_r1_network.node[83].core_layer 	interests[83] 	12005
scalar tree_5_3_u10_r1_network.node[83].core_layer 	data[83] 	9602
scalar tree_5_3_u10_r1_network.node[83].content_store 	p_hit[83] 	0.20016659725115
scalar tree_5_3_u10_r1_network.node[83].content_store 	hits[83] 	2403
scalar tree_5_3_u10_r1_network.node[83].content_store 	misses[83] 	9602
scalar tree_5_3_u10_r1_network.node[83].content_store 	decision_yes[83] 	1
scalar tree_5_3_u10_r1_network.node[83].content_store 	decision_no[83] 	9601
scalar tree_5_3_u10_r1_network.node[83].content_store 	decision_ratio[83] 	0.00010414496979796
scalar tree_5_3_u10_r1_network.node[84].core_layer 	interests[84] 	11856
scalar tree_5_3_u10_r1_network.node[84].core_layer 	data[84] 	9364
scalar tree_5_3_u10_r1_network.node[84].content_store 	p_hit[84] 	0.21010458839406
scalar tree_5_3_u10_r1_network.node[84].content_store 	hits[84] 	2491
scalar tree_5_3_u10_r1_network.node[84].content_store 	misses[84] 	9365
scalar tree_5_3_u10_r1_network.node[84].content_store 	decision_yes[84] 	3
scalar tree_5_3_u10_r1_network.node[84].content_store 	decision_no[84] 	9361
scalar tree_5_3_u10_r1_network.node[84].content_store 	decision_ratio[84] 	0.00032037590773174
scalar tree_5_3_u10_r1_network.node[85].core_layer 	interests[85] 	11972
scalar tree_5_3_u10_r1_network.node[85].core_layer 	data[85] 	9473
scalar tree_5_3_u10_r1_network.node[85].content_store 	p_hit[85] 	0.20873705312396
scalar tree_5_3_u10_r1_network.node[85].content_store 	hits[85] 	2499
scalar tree_5_3_u10_r1_network.node[85].content_store 	misses[85] 	9473
scalar tree_5_3_u10_r1_network.node[85].content_store 	decision_yes[85] 	0
scalar tree_5_3_u10_r1_network.node[85].content_store 	decision_no[85] 	9473
scalar tree_5_3_u10_r1_network.node[85].content_store 	decision_ratio[85] 	0
scalar tree_5_3_u10_r1_network.node[86].core_layer 	interests[86] 	12070
scalar tree_5_3_u10_r1_network.node[86].core_layer 	data[86] 	9511
scalar tree_5_3_u10_r1_network.node[86].content_store 	p_hit[86] 	0.21209610604805
scalar tree_5_3_u10_r1_network.node[86].content_store 	hits[86] 	2560
scalar tree_5_3_u10_r1_network.node[86].content_store 	misses[86] 	9510
scalar tree_5_3_u10_r1_network.node[86].content_store 	decision_yes[86] 	2
scalar tree_5_3_u10_r1_network.node[86].content_store 	decision_no[86] 	9509
scalar tree_5_3_u10_r1_network.node[86].content_store 	decision_ratio[86] 	0.0002102828304069
scalar tree_5_3_u10_r1_network.node[87].core_layer 	interests[87] 	11871
scalar tree_5_3_u10_r1_network.node[87].core_layer 	data[87] 	9463
scalar tree_5_3_u10_r1_network.node[87].content_store 	p_hit[87] 	0.20284727487154
scalar tree_5_3_u10_r1_network.node[87].content_store 	hits[87] 	2408
scalar tree_5_3_u10_r1_network.node[87].content_store 	misses[87] 	9463
scalar tree_5_3_u10_r1_network.node[87].content_store 	decision_yes[87] 	3
scalar tree_5_3_u10_r1_network.node[87].content_store 	decision_no[87] 	9460
scalar tree_5_3_u10_r1_network.node[87].content_store 	decision_ratio[87] 	0.0003170241995139
scalar tree_5_3_u10_r1_network.node[88].core_layer 	interests[88] 	12118
scalar tree_5_3_u10_r1_network.node[88].core_layer 	data[88] 	9443
scalar tree_5_3_u10_r1_network.node[88].content_store 	p_hit[88] 	0.22074599768939
scalar tree_5_3_u10_r1_network.node[88].content_store 	hits[88] 	2675
scalar tree_5_3_u10_r1_network.node[88].content_store 	misses[88] 	9443
scalar tree_5_3_u10_r1_network.node[88].content_store 	decision_yes[88] 	1
scalar tree_5_3_u10_r1_network.node[88].content_store 	decision_no[88] 	9442
scalar tree_5_3_u10_r1_network.node[88].content_store 	decision_ratio[88] 	0.00010589854918988
scalar tree_5_3_u10_r1_network.node[89].core_layer 	interests[89] 	12094
scalar tree_5_3_u10_r1_network.node[89].core_layer 	data[89] 	9470
scalar tree_5_3_u10_r1_network.node[89].content_store 	p_hit[89] 	0.21696709111956
scalar tree_5_3_u10_r1_network.node[89].content_store 	hits[89] 	2624
scalar tree_5_3_u10_r1_network.node[89].content_store 	misses[89] 	9470
scalar tree_5_3_u10_r1_network.node[89].content_store 	decision_yes[89] 	3
scalar tree_5_3_u10_r1_network.node[89].content_store 	decision_no[89] 	9467
scalar tree_5_3_u10_r1_network.node[89].content_store 	decision_ratio[89] 	0.00031678986272439
scalar tree_5_3_u10_r1_network.node[90].core_layer 	interests[90] 	12065
scalar tree_5_3_u10_r1_network.node[90].core_layer 	data[90] 	9509
scalar tree_5_3_u10_r1_network.node[90].content_store 	p_hit[90] 	0.21185246581019
scalar tree_5_3_u10_r1_network.node[90].content_store 	hits[90] 	2556
scalar tree_5_3_u10_r1_network.node[90].content_store 	misses[90] 	9509
scalar tree_5_3_u10_r1_network.node[90].content_store 	decision_yes[90] 	1
scalar tree_5_3_u10_r1_network.node[90].content_store 	decision_no[90] 	9508
scalar tree_5_3_u10_r1_network.node[90].content_store 	decision_ratio[90] 	0.00010516352928804
scalar tree_5_3_u10_r1_network.node[91].core_layer 	interests[91] 	11809
scalar tree_5_3_u10_r1_network.node[91].core_layer 	data[91] 	9257
scalar tree_5_3_u10_r1_network.node[91].content_store 	p_hit[91] 	0.21610635955627
scalar tree_5_3_u10_r1_network.node[91].content_store 	hits[91] 	2552
scalar tree_5_3_u10_r1_network.node[91].content_store 	misses[91] 	9257
scalar tree_5_3_u10_r1_network.node[91].content_store 	decision_yes[91] 	2
scalar tree_5_3_u10_r1_network.node[91].content_store 	decision_no[91] 	9255
scalar tree_5_3_u10_r1_network.node[91].content_store 	decision_ratio[91] 	0.00021605271686291
scalar tree_5_3_u10_r1_network.node[92].core_layer 	interests[92] 	11991
scalar tree_5_3_u10_r1_network.node[92].core_layer 	data[92] 	9215
scalar tree_5_3_u10_r1_network.node[92].content_store 	p_hit[92] 	0.231506963556
scalar tree_5_3_u10_r1_network.node[92].content_store 	hits[92] 	2776
scalar tree_5_3_u10_r1_network.node[92].content_store 	misses[92] 	9215
scalar tree_5_3_u10_r1_network.node[92].content_store 	decision_yes[92] 	5
scalar tree_5_3_u10_r1_network.node[92].content_store 	decision_no[92] 	9210
scalar tree_5_3_u10_r1_network.node[92].content_store 	decision_ratio[92] 	0.00054259359739555
scalar tree_5_3_u10_r1_network.node[93].core_layer 	interests[93] 	12137
scalar tree_5_3_u10_r1_network.node[93].core_layer 	data[93] 	9621
scalar tree_5_3_u10_r1_network.node[93].content_store 	p_hit[93] 	0.20729999176073
scalar tree_5_3_u10_r1_network.node[93].content_store 	hits[93] 	2516
scalar tree_5_3_u10_r1_network.node[93].content_store 	misses[93] 	9621
scalar tree_5_3_u10_r1_network.node[93].content_store 	decision_yes[93] 	2
scalar tree_5_3_u10_r1_network.node[93].content_store 	decision_no[93] 	9619
scalar tree_5_3_u10_r1_network.node[93].content_store 	decision_ratio[93] 	0.00020787859889824
scalar tree_5_3_u10_r1_network.node[94].core_layer 	interests[94] 	11912
scalar tree_5_3_u10_r1_network.node[94].core_layer 	data[94] 	9306
scalar tree_5_3_u10_r1_network.node[94].content_store 	p_hit[94] 	0.21877098723976
scalar tree_5_3_u10_r1_network.node[94].content_store 	hits[94] 	2606
scalar tree_5_3_u10_r1_network.node[94].content_store 	misses[94] 	9306
scalar tree_5_3_u10_r1_network.node[94].content_store 	decision_yes[94] 	3
scalar tree_5_3_u10_r1_network.node[94].content_store 	decision_no[94] 	9303
scalar tree_5_3_u10_r1_network.node[94].content_store 	decision_ratio[94] 	0.00032237266279819
scalar tree_5_3_u10_r1_network.node[95].core_layer 	interests[95] 	12030
scalar tree_5_3_u10_r1_network.node[95].core_layer 	data[95] 	9771
scalar tree_5_3_u10_r1_network.node[95].content_store 	p_hit[95] 	0.18778054862843
scalar tree_5_3_u10_r1_network.node[95].content_store 	hits[95] 	2259
scalar tree_5_3_u10_r1_network.node[95].content_store 	misses[95] 	9771
scalar tree_5_3_u10_r1_network.node[95].content_store 	decision_yes[95] 	2
scalar tree_5_3_u10_r1_network.node[95].content_store 	decision_no[95] 	9769
scalar tree_5_3_u10_r1_network.node[95].content_store 	decision_ratio[95] 	0.00020468734008802
scalar tree_5_3_u10_r1_network.node[96].core_layer 	interests[96] 	11977
scalar tree_5_3_u10_r1_network.node[96].core_layer 	data[96] 	9304
scalar tree_5_3_u10_r1_network.node[96].content_store 	p_hit[96] 	0.22317775736829
scalar tree_5_3_u10_r1_network.node[96].content_store 	hits[96] 	2673
scalar tree_5_3_u10_r1_network.node[96].content_store 	misses[96] 	9304
scalar tree_5_3_u10_r1_network.node[96].content_store 	decision_yes[96] 	0
scalar tree_5_3_u10_r1_network.node[96].content_store 	decision_no[96] 	9304
scalar tree_5_3_u10_r1_network.node[96].content_store 	decision_ratio[96] 	0
scalar tree_5_3_u10_r1_network.node[97].core_layer 	interests[97] 	12192
scalar tree_5_3_u10_r1_network.node[97].core_layer 	data[97] 	9602
scalar tree_5_3_u10_r1_network.node[97].content_store 	p_hit[97] 	0.21235236220472
scalar tree_5_3_u10_r1_network.node[97].content_store 	hits[97] 	2589
scalar tree_5_3_u10_r1_network.node[97].content_store 	misses[97] 	9603
scalar tree_5_3_u10_r1_network.node[97].content_store 	decision_yes[97] 	1
scalar tree_5_3_u10_r1_network.node[97].content_store 	decision_no[97] 	9601
scalar tree_5_3_u10_r1_network.node[97].content_store 	decision_ratio[97] 	0.00010414496979796
scalar tree_5_3_u10_r1_network.node[98].core_layer 	interests[98] 	12196
scalar tree_5_3_u10_r1_network.node[98].core_layer 	data[98] 	9586
scalar tree_5_3_u10_r1_network.node[98].content_store 	p_hit[98] 	0.2140045916694
scalar tree_5_3_u10_r1_network.node[98].content_store 	hits[98] 	2610
scalar tree_5_3_u10_r1_network.node[98].content_store 	misses[98] 	9586
scalar tree_5_3_u10_r1_network.node[98].content_store 	decision_yes[98] 	1
scalar tree_5_3_u10_r1_network.node[98].content_store 	decision_no[98] 	9585
scalar tree_5_3_u10_r1_network.node[98].content_store 	decision_ratio[98] 	0.00010431879824744
scalar tree_5_3_u10_r1_network.node[99].core_layer 	interests[99] 	11962
scalar tree_5_3_u10_r1_network.node[99].core_layer 	data[99] 	9491
scalar tree_5_3_u10_r1_network.node[99].content_store 	p_hit[99] 	0.20657080755726
scalar tree_5_3_u10_r1_network.node[99].content_store 	hits[99] 	2471
scalar tree_5_3_u10_r1_network.node[99].content_store 	misses[99] 	9491
scalar tree_5_3_u10_r1_network.node[99].content_store 	decision_yes[99] 	5
scalar tree_5_3_u10_r1_network.node[99].content_store 	decision_no[99] 	9486
scalar tree_5_3_u10_r1_network.node[99].content_store 	decision_ratio[99] 	0.00052681487725213
scalar tree_5_3_u10_r1_network.node[100].core_layer 	interests[100] 	12186
scalar tree_5_3_u10_r1_network.node[100].core_layer 	data[100] 	9360
scalar tree_5_3_u10_r1_network.node[100].content_store 	p_hit[100] 	0.23198752666995
scalar tree_5_3_u10_r1_network.node[100].content_store 	hits[100] 	2827
scalar tree_5_3_u10_r1_network.node[100].content_store 	misses[100] 	9359
scalar tree_5_3_u10_r1_network.node[100].content_store 	decision_yes[100] 	2
scalar tree_5_3_u10_r1_network.node[100].content_store 	decision_no[100] 	9358
scalar tree_5_3_u10_r1_network.node[100].content_store 	decision_ratio[100] 	0.00021367521367521
scalar tree_5_3_u10_r1_network.node[101].core_layer 	interests[101] 	11800
scalar tree_5_3_u10_r1_network.node[101].core_layer 	data[101] 	9364
scalar tree_5_3_u10_r1_network.node[101].content_store 	p_hit[101] 	0.2064406779661
scalar tree_5_3_u10_r1_network.node[101].content_store 	hits[101] 	2436
scalar tree_5_3_u10_r1_network.node[101].content_store 	misses[101] 	9364
scalar tree_5_3_u10_r1_network.node[101].content_store 	decision_yes[101] 	1
scalar tree_5_3_u10_r1_network.node[101].content_store 	decision_no[101] 	9363
scalar tree_5_3_u10_r1_network.node[101].content_store 	decision_ratio[101] 	0.00010679196924391
scalar tree_5_3_u10_r1_network.node[102].core_layer 	interests[102] 	11745
scalar tree_5_3_u10_r1_network.node[102].core_layer 	data[102] 	9228
scalar tree_5_3_u10_r1_network.node[102].content_store 	p_hit[102] 	0.21430395913155
scalar tree_5_3_u10_r1_network.node[102].content_store 	hits[102] 	2517
scalar tree_5_3_u10_r1_network.node[102].content_store 	misses[102] 	9228
scalar tree_5_3_u10_r1_network.node[102].content_store 	decision_yes[102] 	3
scalar tree_5_3_u10_r1_network.node[102].content_store 	decision_no[102] 	9225
scalar tree_5_3_u10_r1_network.node[102].content_store 	decision_ratio[102] 	0.00032509752925878
scalar tree_5_3_u10_r1_network.node[103].core_layer 	interests[103] 	11923
scalar tree_5_3_u10_r1_network.node[103].core_layer 	data[103] 	9297
scalar tree_5_3_u10_r1_network.node[103].content_store 	p_hit[103] 	0.22024658223601
scalar tree_5_3_u10_r1_network.node[103].content_store 	hits[103] 	2626
scalar tree_5_3_u10_r1_network.node[103].content_store 	misses[103] 	9297
scalar tree_5_3_u10_r1_network.node[103].content_store 	decision_yes[103] 	3
scalar tree_5_3_u10_r1_network.node[103].content_store 	decision_no[103] 	9294
scalar tree_5_3_u10_r1_network.node[103].content_store 	decision_ratio[103] 	0.00032268473701194
scalar tree_5_3_u10_r1_network.node[104].core_layer 	interests[104] 	11963
scalar tree_5_3_u10_r1_network.node[104].core_layer 	data[104] 	9217
scalar tree_5_3_u10_r1_network.node[104].content_store 	p_hit[104] 	0.22945749393965
scalar tree_5_3_u10_r1_network.node[104].content_store 	hits[104] 	2745
scalar tree_5_3_u10_r1_network.node[104].content_store 	misses[104] 	9218
scalar tree_5_3_u10_r1_network.node[104].content_store 	decision_yes[104] 	2
scalar tree_5_3_u10_r1_network.node[104].content_store 	decision_no[104] 	9215
scalar tree_5_3_u10_r1_network.node[104].content_store 	decision_ratio[104] 	0.0002169903439297
scalar tree_5_3_u10_r1_network.node[105].core_layer 	interests[105] 	12125
scalar tree_5_3_u10_r1_network.node[105].core_layer 	data[105] 	9477
scalar tree_5_3_u10_r1_network.node[105].content_store 	p_hit[105] 	0.21839175257732
scalar tree_5_3_u10_r1_network.node[105].content_store 	hits[105] 	2648
scalar tree_5_3_u10_r1_network.node[105].content_store 	misses[105] 	9477
scalar tree_5_3_u10_r1_network.node[105].content_store 	decision_yes[105] 	4
scalar tree_5_3_u10_r1_network.node[105].content_store 	decision_no[105] 	9473
scalar tree_5_3_u10_r1_network.node[105].content_store 	decision_ratio[105] 	0.00042207449614857
scalar tree_5_3_u10_r1_network.node[106].core_layer 	interests[106] 	12022
scalar tree_5_3_u10_r1_network.node[106].core_layer 	data[106] 	9429
scalar tree_5_3_u10_r1_network.node[106].content_store 	p_hit[106] 	0.21568790550657
scalar tree_5_3_u10_r1_network.node[106].content_store 	hits[106] 	2593
scalar tree_5_3_u10_r1_network.node[106].content_store 	misses[106] 	9429
scalar tree_5_3_u10_r1_network.node[106].content_store 	decision_yes[106] 	2
scalar tree_5_3_u10_r1_network.node[106].content_store 	decision_no[106] 	9427
scalar tree_5_3_u10_r1_network.node[106].content_store 	decision_ratio[106] 	0.00021211157068618
scalar tree_5_3_u10_r1_network.node[107].core_layer 	interests[107] 	12095
scalar tree_5_3_u10_r1_network.node[107].core_layer 	data[107] 	9556
scalar tree_5_3_u10_r1_network.node[107].content_store 	p_hit[107] 	0.20992145514675
scalar tree_5_3_u10_r1_network.node[107].content_store 	hits[107] 	2539
scalar tree_5_3_u10_r1_network.node[107].content_store 	misses[107] 	9556
scalar tree_5_3_u10_r1_network.node[107].content_store 	decision_yes[107] 	1
scalar tree_5_3_u10_r1_network.node[107].content_store 	decision_no[107] 	9555
scalar tree_5_3_u10_r1_network.node[107].content_store 	decision_ratio[107] 	0.00010464629552114
scalar tree_5_3_u10_r1_network.node[108].core_layer 	interests[108] 	12010
scalar tree_5_3_u10_r1_network.node[108].core_layer 	data[108] 	9279
scalar tree_5_3_u10_r1_network.node[108].content_store 	p_hit[108] 	0.22739383846794
scalar tree_5_3_u10_r1_network.node[108].content_store 	hits[108] 	2731
scalar tree_5_3_u10_r1_network.node[108].content_store 	misses[108] 	9279
scalar tree_5_3_u10_r1_network.node[108].content_store 	decision_yes[108] 	4
scalar tree_5_3_u10_r1_network.node[108].content_store 	decision_no[108] 	9275
scalar tree_5_3_u10_r1_network.node[108].content_store 	decision_ratio[108] 	0.00043108093544563
scalar tree_5_3_u10_r1_network.node[109].core_layer 	interests[109] 	12013
scalar tree_5_3_u10_r1_network.node[109].core_layer 	data[109] 	9444
scalar tree_5_3_u10_r1_network.node[109].content_store 	p_hit[109] 	0.21385166070091
scalar tree_5_3_u10_r1_network.node[109].content_store 	hits[109] 	2569
scalar tree_5_3_u10_r1_network.node[109].content_store 	misses[109] 	9444
scalar tree_5_3_u10_r1_network.node[109].content_store 	decision_yes[109] 	2
scalar tree_5_3_u10_r1_network.node[109].content_store 	decision_no[109] 	9442
scalar tree_5_3_u10_r1_network.node[109].content_store 	decision_ratio[109] 	0.00021177467174926
scalar tree_5_3_u10_r1_network.node[110].core_layer 	interests[110] 	11950
scalar tree_5_3_u10_r1_network.node[110].core_layer 	data[110] 	9454
scalar tree_5_3_u10_r1_network.node[110].content_store 	p_hit[110] 	0.2089539748954
scalar tree_5_3_u10_r1_network.node[110].content_store 	hits[110] 	2497
scalar tree_5_3_u10_r1_network.node[110].content_store 	misses[110] 	9453
scalar tree_5_3_u10_r1_network.node[110].content_store 	decision_yes[110] 	7
scalar tree_5_3_u10_r1_network.node[110].content_store 	decision_no[110] 	9447
scalar tree_5_3_u10_r1_network.node[110].content_store 	decision_ratio[110] 	0.0007404273323461
scalar tree_5_3_u10_r1_network.node[111].core_layer 	interests[111] 	12162
scalar tree_5_3_u10_r1_network.node[111].core_layer 	data[111] 	9591
scalar tree_5_3_u10_r1_network.node[111].content_store 	p_hit[111] 	0.21131392863016
scalar tree_5_3_u10_r1_network.node[111].content_store 	hits[111] 	2570
scalar tree_5_3_u10_r1_network.node[111].content_store 	misses[111] 	9592
scalar tree_5_3_u10_r1_network.node[111].content_store 	decision_yes[111] 	2
scalar tree_5_3_u10_r1_network.node[111].content_store 	decision_no[111] 	9589
scalar tree_5_3_u10_r1_network.node[111].content_store 	decision_ratio[111] 	0.00020852882911062
scalar tree_5_3_u10_r1_network.node[112].core_layer 	interests[112] 	12066
scalar tree_5_3_u10_r1_network.node[112].core_layer 	data[112] 	9529
scalar tree_5_3_u10_r1_network.node[112].content_store 	p_hit[112] 	0.21026023537212
scalar tree_5_3_u10_r1_network.node[112].content_store 	hits[112] 	2537
scalar tree_5_3_u10_r1_network.node[112].content_store 	misses[112] 	9529
scalar tree_5_3_u10_r1_network.node[112].content_store 	decision_yes[112] 	4
scalar tree_5_3_u10_r1_network.node[112].content_store 	decision_no[112] 	9525
scalar tree_5_3_u10_r1_network.node[112].content_store 	decision_ratio[112] 	0.00041977122468255
scalar tree_5_3_u10_r1_network.node[113].core_layer 	interests[113] 	11985
scalar tree_5_3_u10_r1_network.node[113].core_layer 	data[113] 	9403
scalar tree_5_3_u10_r1_network.node[113].content_store 	p_hit[113] 	0.21543596161869
scalar tree_5_3_u10_r1_network.node[113].content_store 	hits[113] 	2582
scalar tree_5_3_u10_r1_network.node[113].content_store 	misses[113] 	9403
scalar tree_5_3_u10_r1_network.node[113].content_store 	decision_yes[113] 	3
scalar tree_5_3_u10_r1_network.node[113].content_store 	decision_no[113] 	9400
scalar tree_5_3_u10_r1_network.node[113].content_store 	decision_ratio[113] 	0.00031904711262363
scalar tree_5_3_u10_r1_network.node[114].core_layer 	interests[114] 	11756
scalar tree_5_3_u10_r1_network.node[114].core_layer 	data[114] 	9243
scalar tree_5_3_u10_r1_network.node[114].content_store 	p_hit[114] 	0.21376318475672
scalar tree_5_3_u10_r1_network.node[114].content_store 	hits[114] 	2513
scalar tree_5_3_u10_r1_network.node[114].content_store 	misses[114] 	9243
scalar tree_5_3_u10_r1_network.node[114].content_store 	decision_yes[114] 	0
scalar tree_5_3_u10_r1_network.node[114].content_store 	decision_no[114] 	9243
scalar tree_5_3_u10_r1_network.node[114].content_store 	decision_ratio[114] 	0
scalar tree_5_3_u10_r1_network.node[115].core_layer 	interests[115] 	11827
scalar tree_5_3_u10_r1_network.node[115].core_layer 	data[115] 	9265
scalar tree_5_3_u10_r1_network.node[115].content_store 	p_hit[115] 	0.21662298131394
scalar tree_5_3_u10_r1_network.node[115].content_store 	hits[115] 	2562
scalar tree_5_3_u10_r1_network.node[115].content_store 	misses[115] 	9265
scalar tree_5_3_u10_r1_network.node[115].content_store 	decision_yes[115] 	0
scalar tree_5_3_u10_r1_network.node[115].content_store 	decision_no[115] 	9265
scalar tree_5_3_u10_r1_network.node[115].content_store 	decision_ratio[115] 	0
scalar tree_5_3_u10_r1_network.node[116].core_layer 	interests[116] 	11921
scalar tree_5_3_u10_r1_network.node[116].core_layer 	data[116] 	9330
scalar tree_5_3_u10_r1_network.node[116].content_store 	p_hit[116] 	0.21734753795822
scalar tree_5_3_u10_r1_network.node[116].content_store 	hits[116] 	2591
scalar tree_5_3_u10_r1_network.node[116].content_store 	misses[116] 	9330
scalar tree_5_3_u10_r1_network.node[116].content_store 	decision_yes[116] 	1
scalar tree_5_3_u10_r1_network.node[116].content_store 	decision_no[116] 	9329
scalar tree_5_3_u10_r1_network.node[116].content_store 	decision_ratio[116] 	0.00010718113612004
scalar tree_5_3_u10_r1_network.node[117].core_layer 	interests[117] 	11830
scalar tree_5_3_u10_r1_network.node[117].core_layer 	data[117] 	9378
scalar tree_5_3_u10_r1_network.node[117].content_store 	p_hit[117] 	0.2072696534235
scalar tree_5_3_u10_r1_network.node[117].content_store 	hits[117] 	2452
scalar tree_5_3_u10_r1_network.node[117].content_store 	misses[117] 	9378
scalar tree_5_3_u10_r1_network.node[117].content_store 	decision_yes[117] 	2
scalar tree_5_3_u10_r1_network.node[117].content_store 	decision_no[117] 	9376
scalar tree_5_3_u10_r1_network.node[117].content_store 	decision_ratio[117] 	0.00021326508850501
scalar tree_5_3_u10_r1_network.node[118].core_layer 	interests[118] 	11920
scalar tree_5_3_u10_r1_network.node[118].core_layer 	data[118] 	9252
scalar tree_5_3_u10_r1_network.node[118].content_store 	p_hit[118] 	0.22374161073826
scalar tree_5_3_u10_r1_network.node[118].content_store 	hits[118] 	2667
scalar tree_5_3_u10_r1_network.node[118].content_store 	misses[118] 	9253
scalar tree_5_3_u10_r1_network.node[118].content_store 	decision_yes[118] 	1
scalar tree_5_3_u10_r1_network.node[118].content_store 	decision_no[118] 	9251
scalar tree_5_3_u10_r1_network.node[118].content_store 	decision_ratio[118] 	0.00010808473843493
scalar tree_5_3_u10_r1_network.node[119].core_layer 	interests[119] 	12119
scalar tree_5_3_u10_r1_network.node[119].core_layer 	data[119] 	9520
scalar tree_5_3_u10_r1_network.node[119].content_store 	p_hit[119] 	0.2144566383365
scalar tree_5_3_u10_r1_network.node[119].content_store 	hits[119] 	2599
scalar tree_5_3_u10_r1_network.node[119].content_store 	misses[119] 	9520
scalar tree_5_3_u10_r1_network.node[119].content_store 	decision_yes[119] 	3
scalar tree_5_3_u10_r1_network.node[119].content_store 	decision_no[119] 	9517
scalar tree_5_3_u10_r1_network.node[119].content_store 	decision_ratio[119] 	0.00031512605042017
scalar tree_5_3_u10_r1_network.node[120].core_layer 	interests[120] 	11922
scalar tree_5_3_u10_r1_network.node[120].core_layer 	data[120] 	9445
scalar tree_5_3_u10_r1_network.node[120].content_store 	p_hit[120] 	0.20776715316222
scalar tree_5_3_u10_r1_network.node[120].content_store 	hits[120] 	2477
scalar tree_5_3_u10_r1_network.node[120].content_store 	misses[120] 	9445
scalar tree_5_3_u10_r1_network.node[120].content_store 	decision_yes[120] 	3
scalar tree_5_3_u10_r1_network.node[120].content_store 	decision_no[120] 	9442
scalar tree_5_3_u10_r1_network.node[120].content_store 	decision_ratio[120] 	0.00031762837480148
scalar tree_5_3_u10_r1_network.client[40] 	hdistance[40] 	3.4801540780439
scalar tree_5_3_u10_r1_network.client[40] 	downloads[40] 	11942
scalar tree_5_3_u10_r1_network.client[40] 	avg_time[40] 	0.005695525364
scalar tree_5_3_u10_r1_network.client[41] 	hdistance[41] 	3.4528534958412
scalar tree_5_3_u10_r1_network.client[41] 	downloads[41] 	12143
scalar tree_5_3_u10_r1_network.client[41] 	avg_time[41] 	0.005650704762
scalar tree_5_3_u10_r1_network.client[42] 	hdistance[42] 	3.4725006316853
scalar tree_5_3_u10_r1_network.client[42] 	downloads[42] 	11873
scalar tree_5_3_u10_r1_network.client[42] 	avg_time[42] 	0.00568033344
scalar tree_5_3_u10_r1_network.client[43] 	hdistance[43] 	3.4767228433172
scalar tree_5_3_u10_r1_network.client[43] 	downloads[43] 	11986
scalar tree_5_3_u10_r1_network.client[43] 	avg_time[43] 	0.005686443377
scalar tree_5_3_u10_r1_network.client[44] 	hdistance[44] 	3.4965286491008
scalar tree_5_3_u10_r1_network.client[44] 	downloads[44] 	11955
scalar tree_5_3_u10_r1_network.client[44] 	avg_time[44] 	0.005711087517
scalar tree_5_3_u10_r1_network.client[45] 	hdistance[45] 	3.5048978914162
scalar tree_5_3_u10_r1_network.client[45] 	downloads[45] 	12046
scalar tree_5_3_u10_r1_network.client[45] 	avg_time[45] 	0.005733827835
scalar tree_5_3_u10_r1_network.client[46] 	hdistance[46] 	3.4409396530256
scalar tree_5_3_u10_r1_network.client[46] 	downloads[46] 	12047
scalar tree_5_3_u10_r1_network.client[46] 	avg_time[46] 	0.005630914249
scalar tree_5_3_u10_r1_network.client[47] 	hdistance[47] 	3.5180894820784
scalar tree_5_3_u10_r1_network.client[47] 	downloads[47] 	11913
scalar tree_5_3_u10_r1_network.client[47] 	avg_time[47] 	0.005764791782
scalar tree_5_3_u10_r1_network.client[48] 	hdistance[48] 	3.5277686762779
scalar tree_5_3_u10_r1_network.client[48] 	downloads[48] 	12208
scalar tree_5_3_u10_r1_network.client[48] 	avg_time[48] 	0.005772667565
scalar tree_5_3_u10_r1_network.client[49] 	hdistance[49] 	3.4888368592692
scalar tree_5_3_u10_r1_network.client[49] 	downloads[49] 	11959
scalar tree_5_3_u10_r1_network.client[49] 	avg_time[49] 	0.005707664904
scalar tree_5_3_u10_r1_network.client[50] 	hdistance[50] 	3.4639914304549
scalar tree_5_3_u10_r1_network.client[50] 	downloads[50] 	12136
scalar tree_5_3_u10_r1_network.client[50] 	avg_time[50] 	0.005666851649
scalar tree_5_3_u10_r1_network.client[51] 	hdistance[51] 	3.4723694171083
scalar tree_5_3_u10_r1_network.client[51] 	downloads[51] 	11889
scalar tree_5_3_u10_r1_network.client[51] 	avg_time[51] 	0.005676473811
scalar tree_5_3_u10_r1_network.client[52] 	hdistance[52] 	3.4650792319946
scalar tree_5_3_u10_r1_network.client[52] 	downloads[52] 	11927
scalar tree_5_3_u10_r1_network.client[52] 	avg_time[52] 	0.005667410655
scalar tree_5_3_u10_r1_network.client[53] 	hdistance[53] 	3.5618453865337
scalar tree_5_3_u10_r1_network.client[53] 	downloads[53] 	12030
scalar tree_5_3_u10_r1_network.client[53] 	avg_time[53] 	0.005820445844
scalar tree_5_3_u10_r1_network.client[54] 	hdistance[54] 	3.5352183369583
scalar tree_5_3_u10_r1_network.client[54] 	downloads[54] 	11954
scalar tree_5_3_u10_r1_network.client[54] 	avg_time[54] 	0.005777310045
scalar tree_5_3_u10_r1_network.client[55] 	hdistance[55] 	3.4300600200067
scalar tree_5_3_u10_r1_network.client[55] 	downloads[55] 	11996
scalar tree_5_3_u10_r1_network.client[55] 	avg_time[55] 	0.005614868613
scalar tree_5_3_u10_r1_network.client[56] 	hdistance[56] 	3.5514127102494
scalar tree_5_3_u10_r1_network.client[56] 	downloads[56] 	12069
scalar tree_5_3_u10_r1_network.client[56] 	avg_time[56] 	0.005798526167
scalar tree_5_3_u10_r1_network.client[57] 	hdistance[57] 	3.6068977205322
scalar tree_5_3_u10_r1_network.client[57] 	downloads[57] 	11801
scalar tree_5_3_u10_r1_network.client[57] 	avg_time[57] 	0.005893217869
scalar tree_5_3_u10_r1_network.client[58] 	hdistance[58] 	3.4520227348713
scalar tree_5_3_u10_r1_network.client[58] 	downloads[58] 	11964
scalar tree_5_3_u10_r1_network.client[58] 	avg_time[58] 	0.005644685857
scalar tree_5_3_u10_r1_network.client[59] 	hdistance[59] 	3.4978125525829
scalar tree_5_3_u10_r1_network.client[59] 	downloads[59] 	11886
scalar tree_5_3_u10_r1_network.client[59] 	avg_time[59] 	0.005719196888
scalar tree_5_3_u10_r1_network.client[60] 	hdistance[60] 	3.4414540083696
scalar tree_5_3_u10_r1_network.client[60] 	downloads[60] 	12187
scalar tree_5_3_u10_r1_network.client[60] 	avg_time[60] 	0.00562270965
scalar tree_5_3_u10_r1_network.client[61] 	hdistance[61] 	3.5015410245731
scalar tree_5_3_u10_r1_network.client[61] 	downloads[61] 	12005
scalar tree_5_3_u10_r1_network.client[61] 	avg_time[61] 	0.005722856122
scalar tree_5_3_u10_r1_network.client[62] 	hdistance[62] 	3.5485030941629
scalar tree_5_3_u10_r1_network.client[62] 	downloads[62] 	11958
scalar tree_5_3_u10_r1_network.client[62] 	avg_time[62] 	0.005801695623
scalar tree_5_3_u10_r1_network.client[63] 	hdistance[63] 	3.4748299319728
scalar tree_5_3_u10_r1_network.client[63] 	downloads[63] 	11760
scalar tree_5_3_u10_r1_network.client[63] 	avg_time[63] 	0.005679472549
scalar tree_5_3_u10_r1_network.client[64] 	hdistance[64] 	3.4543881334981
scalar tree_5_3_u10_r1_network.client[64] 	downloads[64] 	12135
scalar tree_5_3_u10_r1_network.client[64] 	avg_time[64] 	0.005647903286
scalar tree_5_3_u10_r1_network.client[65] 	hdistance[65] 	3.510451954061
scalar tree_5_3_u10_r1_network.client[65] 	downloads[65] 	12103
scalar tree_5_3_u10_r1_network.client[65] 	avg_time[65] 	0.00573476249
scalar tree_5_3_u10_r1_network.client[66] 	hdistance[66] 	3.6309592424866
scalar tree_5_3_u10_r1_network.client[66] 	downloads[66] 	12145
scalar tree_5_3_u10_r1_network.client[66] 	avg_time[66] 	0.005915533996
scalar tree_5_3_u10_r1_network.client[67] 	hdistance[67] 	3.4257135682598
scalar tree_5_3_u10_r1_network.client[67] 	downloads[67] 	11947
scalar tree_5_3_u10_r1_network.client[67] 	avg_time[67] 	0.005609190938
scalar tree_5_3_u10_r1_network.client[68] 	hdistance[68] 	3.4663573085847
scalar tree_5_3_u10_r1_network.client[68] 	downloads[68] 	12068
scalar tree_5_3_u10_r1_network.client[68] 	avg_time[68] 	0.005664943336
scalar tree_5_3_u10_r1_network.client[69] 	hdistance[69] 	3.4216887281098
scalar tree_5_3_u10_r1_network.client[69] 	downloads[69] 	12163
scalar tree_5_3_u10_r1_network.client[69] 	avg_time[69] 	0.005598303875
scalar tree_5_3_u10_r1_network.client[70] 	hdistance[70] 	3.4760642703329
scalar tree_5_3_u10_r1_network.client[70] 	downloads[70] 	12074
scalar tree_5_3_u10_r1_network.client[70] 	avg_time[70] 	0.005680964339
scalar tree_5_3_u10_r1_network.client[71] 	hdistance[71] 	3.5541336925408
scalar tree_5_3_u10_r1_network.client[71] 	downloads[71] 	11878
scalar tree_5_3_u10_r1_network.client[71] 	avg_time[71] 	0.005813918439
scalar tree_5_3_u10_r1_network.client[72] 	hdistance[72] 	3.5074238738361
scalar tree_5_3_u10_r1_network.client[72] 	downloads[72] 	11921
scalar tree_5_3_u10_r1_network.client[72] 	avg_time[72] 	0.005736428515
scalar tree_5_3_u10_r1_network.client[73] 	hdistance[73] 	3.4542384329618
scalar tree_5_3_u10_r1_network.client[73] 	downloads[73] 	11844
scalar tree_5_3_u10_r1_network.client[73] 	avg_time[73] 	0.005652479304
scalar tree_5_3_u10_r1_network.client[74] 	hdistance[74] 	3.5384743227522
scalar tree_5_3_u10_r1_network.client[74] 	downloads[74] 	12034
scalar tree_5_3_u10_r1_network.client[74] 	avg_time[74] 	0.005790756494
scalar tree_5_3_u10_r1_network.client[75] 	hdistance[75] 	3.5967442645074
scalar tree_5_3_u10_r1_network.client[75] 	downloads[75] 	11856
scalar tree_5_3_u10_r1_network.client[75] 	avg_time[75] 	0.005885426566
scalar tree_5_3_u10_r1_network.client[76] 	hdistance[76] 	3.4313807531381
scalar tree_5_3_u10_r1_network.client[76] 	downloads[76] 	11950
scalar tree_5_3_u10_r1_network.client[76] 	avg_time[76] 	0.005611971922
scalar tree_5_3_u10_r1_network.client[77] 	hdistance[77] 	3.4997078707954
scalar tree_5_3_u10_r1_network.client[77] 	downloads[77] 	11981
scalar tree_5_3_u10_r1_network.client[77] 	avg_time[77] 	0.005727504554
scalar tree_5_3_u10_r1_network.client[78] 	hdistance[78] 	3.4854863909218
scalar tree_5_3_u10_r1_network.client[78] 	downloads[78] 	12161
scalar tree_5_3_u10_r1_network.client[78] 	avg_time[78] 	0.005693406399
scalar tree_5_3_u10_r1_network.client[79] 	hdistance[79] 	3.4603648424544
scalar tree_5_3_u10_r1_network.client[79] 	downloads[79] 	12060
scalar tree_5_3_u10_r1_network.client[79] 	avg_time[79] 	0.005662963571
scalar tree_5_3_u10_r1_network.client[80] 	hdistance[80] 	3.4990411073126
scalar tree_5_3_u10_r1_network.client[80] 	downloads[80] 	11993
scalar tree_5_3_u10_r1_network.client[80] 	avg_time[80] 	0.005720167089
scalar tree_5_3_u10_r1_network.client[81] 	hdistance[81] 	3.5447945883518
scalar tree_5_3_u10_r1_network.client[81] 	downloads[81] 	12122
scalar tree_5_3_u10_r1_network.client[81] 	avg_time[81] 	0.005794673649
scalar tree_5_3_u10_r1_network.client[82] 	hdistance[82] 	3.4658866183256
scalar tree_5_3_u10_r1_network.client[82] 	downloads[82] 	12136
scalar tree_5_3_u10_r1_network.client[82] 	avg_time[82] 	0.00566659328
scalar tree_5_3_u10_r1_network.client[83] 	hdistance[83] 	3.5364431486881
scalar tree_5_3_u10_r1_network.client[83] 	downloads[83] 	12005
scalar tree_5_3_u10_r1_network.client[83] 	avg_time[83] 	0.005788148945
scalar tree_5_3_u10_r1_network.client[84] 	hdistance[84] 	3.6037115141291
scalar tree_5_3_u10_r1_network.client[84] 	downloads[84] 	11855
scalar tree_5_3_u10_r1_network.client[84] 	avg_time[84] 	0.00589991215
scalar tree_5_3_u10_r1_network.client[85] 	hdistance[85] 	3.4443701971266
scalar tree_5_3_u10_r1_network.client[85] 	downloads[85] 	11972
scalar tree_5_3_u10_r1_network.client[85] 	avg_time[85] 	0.005632889911
scalar tree_5_3_u10_r1_network.client[86] 	hdistance[86] 	3.4551404191865
scalar tree_5_3_u10_r1_network.client[86] 	downloads[86] 	12071
scalar tree_5_3_u10_r1_network.client[86] 	avg_time[86] 	0.005654243047
scalar tree_5_3_u10_r1_network.client[87] 	hdistance[87] 	3.4696318760003
scalar tree_5_3_u10_r1_network.client[87] 	downloads[87] 	11871
scalar tree_5_3_u10_r1_network.client[87] 	avg_time[87] 	0.005682442841
scalar tree_5_3_u10_r1_network.client[88] 	hdistance[88] 	3.4549430599109
scalar tree_5_3_u10_r1_network.client[88] 	downloads[88] 	12118
scalar tree_5_3_u10_r1_network.client[88] 	avg_time[88] 	0.005648618857
scalar tree_5_3_u10_r1_network.client[89] 	hdistance[89] 	3.5248056887713
scalar tree_5_3_u10_r1_network.client[89] 	downloads[89] 	12094
scalar tree_5_3_u10_r1_network.client[89] 	avg_time[89] 	0.005755412907
scalar tree_5_3_u10_r1_network.client[90] 	hdistance[90] 	3.516286779942
scalar tree_5_3_u10_r1_network.client[90] 	downloads[90] 	12065
scalar tree_5_3_u10_r1_network.client[90] 	avg_time[90] 	0.005749295832
scalar tree_5_3_u10_r1_network.client[91] 	hdistance[91] 	3.4677788127699
scalar tree_5_3_u10_r1_network.client[91] 	downloads[91] 	11809
scalar tree_5_3_u10_r1_network.client[91] 	avg_time[91] 	0.005665845123
scalar tree_5_3_u10_r1_network.client[92] 	hdistance[92] 	3.4630973229922
scalar tree_5_3_u10_r1_network.client[92] 	downloads[92] 	11991
scalar tree_5_3_u10_r1_network.client[92] 	avg_time[92] 	0.005653070109
scalar tree_5_3_u10_r1_network.client[93] 	hdistance[93] 	3.6996786685342
scalar tree_5_3_u10_r1_network.client[93] 	downloads[93] 	12137
scalar tree_5_3_u10_r1_network.client[93] 	avg_time[93] 	0.00602751613
scalar tree_5_3_u10_r1_network.client[94] 	hdistance[94] 	3.443838146407
scalar tree_5_3_u10_r1_network.client[94] 	downloads[94] 	11912
scalar tree_5_3_u10_r1_network.client[94] 	avg_time[94] 	0.00563301738
scalar tree_5_3_u10_r1_network.client[95] 	hdistance[95] 	3.4947630922693
scalar tree_5_3_u10_r1_network.client[95] 	downloads[95] 	12030
scalar tree_5_3_u10_r1_network.client[95] 	avg_time[95] 	0.005719030701
scalar tree_5_3_u10_r1_network.client[96] 	hdistance[96] 	3.4421808466227
scalar tree_5_3_u10_r1_network.client[96] 	downloads[96] 	11977
scalar tree_5_3_u10_r1_network.client[96] 	avg_time[96] 	0.005628210662
scalar tree_5_3_u10_r1_network.client[97] 	hdistance[97] 	3.4884751045854
scalar tree_5_3_u10_r1_network.client[97] 	downloads[97] 	12191
scalar tree_5_3_u10_r1_network.client[97] 	avg_time[97] 	0.005706551311
scalar tree_5_3_u10_r1_network.client[98] 	hdistance[98] 	3.4838471630043
scalar tree_5_3_u10_r1_network.client[98] 	downloads[98] 	12196
scalar tree_5_3_u10_r1_network.client[98] 	avg_time[98] 	0.00570350629
scalar tree_5_3_u10_r1_network.client[99] 	hdistance[99] 	3.5392074903862
scalar tree_5_3_u10_r1_network.client[99] 	downloads[99] 	11962
scalar tree_5_3_u10_r1_network.client[99] 	avg_time[99] 	0.005790225822
scalar tree_5_3_u10_r1_network.client[100] 	hdistance[100] 	3.425371297284
scalar tree_5_3_u10_r1_network.client[100] 	downloads[100] 	12187
scalar tree_5_3_u10_r1_network.client[100] 	avg_time[100] 	0.005597339656
scalar tree_5_3_u10_r1_network.client[101] 	hdistance[101] 	3.5655084745763
scalar tree_5_3_u10_r1_network.client[101] 	downloads[101] 	11800
scalar tree_5_3_u10_r1_network.client[101] 	avg_time[101] 	0.005826214116
scalar tree_5_3_u10_r1_network.client[102] 	hdistance[102] 	3.5679012345679
scalar tree_5_3_u10_r1_network.client[102] 	downloads[102] 	11745
scalar tree_5_3_u10_r1_network.client[102] 	avg_time[102] 	0.005831074089
scalar tree_5_3_u10_r1_network.client[103] 	hdistance[103] 	3.4596997399983
scalar tree_5_3_u10_r1_network.client[103] 	downloads[103] 	11923
scalar tree_5_3_u10_r1_network.client[103] 	avg_time[103] 	0.005657691415
scalar tree_5_3_u10_r1_network.client[104] 	hdistance[104] 	3.4187426851697
scalar tree_5_3_u10_r1_network.client[104] 	downloads[104] 	11962
scalar tree_5_3_u10_r1_network.client[104] 	avg_time[104] 	0.005589860045
scalar tree_5_3_u10_r1_network.client[105] 	hdistance[105] 	3.4378556701031
scalar tree_5_3_u10_r1_network.client[105] 	downloads[105] 	12125
scalar tree_5_3_u10_r1_network.client[105] 	avg_time[105] 	0.005623584585
scalar tree_5_3_u10_r1_network.client[106] 	hdistance[106] 	3.4787057062053
scalar tree_5_3_u10_r1_network.client[106] 	downloads[106] 	12022
scalar tree_5_3_u10_r1_network.client[106] 	avg_time[106] 	0.005691229727
scalar tree_5_3_u10_r1_network.client[107] 	hdistance[107] 	3.5353451839603
scalar tree_5_3_u10_r1_network.client[107] 	downloads[107] 	12095
scalar tree_5_3_u10_r1_network.client[107] 	avg_time[107] 	0.005784752717
scalar tree_5_3_u10_r1_network.client[108] 	hdistance[108] 	3.5107410491257
scalar tree_5_3_u10_r1_network.client[108] 	downloads[108] 	12010
scalar tree_5_3_u10_r1_network.client[108] 	avg_time[108] 	0.005735717221
scalar tree_5_3_u10_r1_network.client[109] 	hdistance[109] 	3.4773162407392
scalar tree_5_3_u10_r1_network.client[109] 	downloads[109] 	12013
scalar tree_5_3_u10_r1_network.client[109] 	avg_time[109] 	0.00569382868
scalar tree_5_3_u10_r1_network.client[110] 	hdistance[110] 	3.5377792653334
scalar tree_5_3_u10_r1_network.client[110] 	downloads[110] 	11951
scalar tree_5_3_u10_r1_network.client[110] 	avg_time[110] 	0.00577768828
scalar tree_5_3_u10_r1_network.client[111] 	hdistance[111] 	3.5798865224899
scalar tree_5_3_u10_r1_network.client[111] 	downloads[111] 	12161
scalar tree_5_3_u10_r1_network.client[111] 	avg_time[111] 	0.005858396745
scalar tree_5_3_u10_r1_network.client[112] 	hdistance[112] 	3.4806895408586
scalar tree_5_3_u10_r1_network.client[112] 	downloads[112] 	12066
scalar tree_5_3_u10_r1_network.client[112] 	avg_time[112] 	0.005702192186
scalar tree_5_3_u10_r1_network.client[113] 	hdistance[113] 	3.4737588652482
scalar tree_5_3_u10_r1_network.client[113] 	downloads[113] 	11985
scalar tree_5_3_u10_r1_network.client[113] 	avg_time[113] 	0.005685430904
scalar tree_5_3_u10_r1_network.client[114] 	hdistance[114] 	3.4755018713848
scalar tree_5_3_u10_r1_network.client[114] 	downloads[114] 	11756
scalar tree_5_3_u10_r1_network.client[114] 	avg_time[114] 	0.005689517304
scalar tree_5_3_u10_r1_network.client[115] 	hdistance[115] 	3.4550604548913
scalar tree_5_3_u10_r1_network.client[115] 	downloads[115] 	11827
scalar tree_5_3_u10_r1_network.client[115] 	avg_time[115] 	0.005658405783
scalar tree_5_3_u10_r1_network.client[116] 	hdistance[116] 	3.5342672594581
scalar tree_5_3_u10_r1_network.client[116] 	downloads[116] 	11921
scalar tree_5_3_u10_r1_network.client[116] 	avg_time[116] 	0.005779881255
scalar tree_5_3_u10_r1_network.client[117] 	hdistance[117] 	3.5212172442942
scalar tree_5_3_u10_r1_network.client[117] 	downloads[117] 	11830
scalar tree_5_3_u10_r1_network.client[117] 	avg_time[117] 	0.005757572178
scalar tree_5_3_u10_r1_network.client[118] 	hdistance[118] 	3.4677405822636
scalar tree_5_3_u10_r1_network.client[118] 	downloads[118] 	11919
scalar tree_5_3_u10_r1_network.client[118] 	avg_time[118] 	0.005664566667
scalar tree_5_3_u10_r1_network.client[119] 	hdistance[119] 	3.5024341942404
scalar tree_5_3_u10_r1_network.client[119] 	downloads[119] 	12119
scalar tree_5_3_u10_r1_network.client[119] 	avg_time[119] 	0.005733803385
scalar tree_5_3_u10_r1_network.client[120] 	hdistance[120] 	3.7258849186378
scalar tree_5_3_u10_r1_network.client[120] 	downloads[120] 	11922
scalar tree_5_3_u10_r1_network.client[120] 	avg_time[120] 	0.006052169476
