version 2
run General-61-20160818-21:49:20-32642
attr a 0.9
attr cd lce
attr configname General
attr cr lru
attr datetime 20160818-21:49:20
attr experiment General
attr fsize 1
attr inifile hw5115/scenario_A/Edge.ini
attr iterationvars "$name=tree_4_3, $un=03, $rep=2, $scenario=Edge, $cd=lce, $cr=lru, $fsize=1, $a=0.9, $sl=spr, $ttl=1000, $variance=0.05"
attr iterationvars2 "$name=tree_4_3, $un=03, $rep=2, $scenario=Edge, $cd=lce, $cr=lru, $fsize=1, $a=0.9, $sl=spr, $ttl=1000, $variance=0.05, $repetition=0"
attr measurement "$name=tree_4_3, $un=03, $rep=2, $scenario=Edge, $cd=lce, $cr=lru, $fsize=1, $a=0.9, $sl=spr, $ttl=1000, $variance=0.05"
attr name tree_4_3
attr network networks.${name}_u${un}_r${rep}_network
attr processid 32642
attr rep 2
attr repetition 0
attr replication #0
attr resultdir results
attr runnumber 61
attr scenario Edge
attr seedset 2
attr sl spr
attr ttl 1000
attr un 03
attr variance 0.05

scalar . 	a 	0.9
scalar . 	fsize 	1
scalar . 	rep 	2
scalar . 	ttl 	1000
scalar . 	un 	03
scalar . 	variance 	0.05
scalar tree_4_3_u03_r2_network.content_distribution 	repo-0 	0
scalar tree_4_3_u03_r2_network.content_distribution 	client-0 	13
scalar tree_4_3_u03_r2_network.content_distribution 	client-1 	14
scalar tree_4_3_u03_r2_network.content_distribution 	client-2 	15
scalar tree_4_3_u03_r2_network.content_distribution 	client-3 	16
scalar tree_4_3_u03_r2_network.content_distribution 	client-4 	17
scalar tree_4_3_u03_r2_network.content_distribution 	client-5 	18
scalar tree_4_3_u03_r2_network.content_distribution 	client-6 	19
scalar tree_4_3_u03_r2_network.content_distribution 	client-7 	20
scalar tree_4_3_u03_r2_network.content_distribution 	client-8 	21
scalar tree_4_3_u03_r2_network.content_distribution 	client-9 	22
scalar tree_4_3_u03_r2_network.content_distribution 	client-10 	23
scalar tree_4_3_u03_r2_network.content_distribution 	client-11 	24
scalar tree_4_3_u03_r2_network.content_distribution 	client-12 	25
scalar tree_4_3_u03_r2_network.content_distribution 	client-13 	26
scalar tree_4_3_u03_r2_network.content_distribution 	client-14 	27
scalar tree_4_3_u03_r2_network.content_distribution 	client-15 	28
scalar tree_4_3_u03_r2_network.content_distribution 	client-16 	29
scalar tree_4_3_u03_r2_network.content_distribution 	client-17 	30
scalar tree_4_3_u03_r2_network.content_distribution 	client-18 	31
scalar tree_4_3_u03_r2_network.content_distribution 	client-19 	32
scalar tree_4_3_u03_r2_network.content_distribution 	client-20 	33
scalar tree_4_3_u03_r2_network.content_distribution 	client-21 	34
scalar tree_4_3_u03_r2_network.content_distribution 	client-22 	35
scalar tree_4_3_u03_r2_network.content_distribution 	client-23 	36
scalar tree_4_3_u03_r2_network.content_distribution 	client-24 	37
scalar tree_4_3_u03_r2_network.content_distribution 	client-25 	38
scalar tree_4_3_u03_r2_network.content_distribution 	client-26 	39
scalar tree_4_3_u03_r2_network.content_distribution 	repo-0_card 	100000
scalar tree_4_3_u03_r2_network.content_distribution 	repo-0_price 	0
scalar tree_4_3_u03_r2_network.statistics 	stabilization_time 	419.9
scalar tree_4_3_u03_r2_network.statistics 	p_hit 	0.1055090347556
scalar tree_4_3_u03_r2_network.statistics 	interests 	28595.25
scalar tree_4_3_u03_r2_network.statistics 	data 	20496.25
scalar tree_4_3_u03_r2_network.statistics 	hdistance 	3.3747209617599
scalar tree_4_3_u03_r2_network.statistics 	avg_time 	0.005061798842
scalar tree_4_3_u03_r2_network.statistics 	downloads 	323938
scalar tree_4_3_u03_r2_network.statistics 	total_cost 	0
scalar tree_4_3_u03_r2_network.statistics 	total_replicas 	100000
scalar tree_4_3_u03_r2_network.statistics 	inner_hit 	0.15643116892739
scalar tree_4_3_u03_r2_network.node[0].core_layer 	interests[0] 	273264
scalar tree_4_3_u03_r2_network.node[0].core_layer 	repo_load[0] 	273264
scalar tree_4_3_u03_r2_network.node[0].core_layer 	data[0] 	0
scalar tree_4_3_u03_r2_network.node[0].core_layer 	repo_int[0] 	273264
scalar tree_4_3_u03_r2_network.node[0].content_store 	p_hit[0] 	0
scalar tree_4_3_u03_r2_network.node[0].content_store 	hits[0] 	0
scalar tree_4_3_u03_r2_network.node[0].content_store 	misses[0] 	273264
scalar tree_4_3_u03_r2_network.node[0].content_store 	decision_yes[0] 	0
scalar tree_4_3_u03_r2_network.node[0].content_store 	decision_no[0] 	273264
scalar tree_4_3_u03_r2_network.node[0].content_store 	decision_ratio[0] 	0
scalar tree_4_3_u03_r2_network.node[1].core_layer 	interests[1] 	90951
scalar tree_4_3_u03_r2_network.node[1].core_layer 	data[1] 	90949
scalar tree_4_3_u03_r2_network.node[1].content_store 	p_hit[1] 	0
scalar tree_4_3_u03_r2_network.node[1].content_store 	hits[1] 	0
scalar tree_4_3_u03_r2_network.node[1].content_store 	misses[1] 	90951
scalar tree_4_3_u03_r2_network.node[1].content_store 	decision_yes[1] 	0
scalar tree_4_3_u03_r2_network.node[1].content_store 	decision_no[1] 	90949
scalar tree_4_3_u03_r2_network.node[1].content_store 	decision_ratio[1] 	0
scalar tree_4_3_u03_r2_network.node[2].core_layer 	interests[2] 	121918
scalar tree_4_3_u03_r2_network.node[2].core_layer 	data[2] 	121902
scalar tree_4_3_u03_r2_network.node[2].content_store 	p_hit[2] 	0
scalar tree_4_3_u03_r2_network.node[2].content_store 	hits[2] 	0
scalar tree_4_3_u03_r2_network.node[2].content_store 	misses[2] 	121918
scalar tree_4_3_u03_r2_network.node[2].content_store 	decision_yes[2] 	0
scalar tree_4_3_u03_r2_network.node[2].content_store 	decision_no[2] 	121902
scalar tree_4_3_u03_r2_network.node[2].content_store 	decision_ratio[2] 	0
scalar tree_4_3_u03_r2_network.node[3].core_layer 	interests[3] 	60415
scalar tree_4_3_u03_r2_network.node[3].core_layer 	data[3] 	60413
scalar tree_4_3_u03_r2_network.node[3].content_store 	p_hit[3] 	0
scalar tree_4_3_u03_r2_network.node[3].content_store 	hits[3] 	0
scalar tree_4_3_u03_r2_network.node[3].content_store 	misses[3] 	60415
scalar tree_4_3_u03_r2_network.node[3].content_store 	decision_yes[3] 	0
scalar tree_4_3_u03_r2_network.node[3].content_store 	decision_no[3] 	60413
scalar tree_4_3_u03_r2_network.node[3].content_store 	decision_ratio[3] 	0
scalar tree_4_3_u03_r2_network.node[4].core_layer 	interests[4] 	50686
scalar tree_4_3_u03_r2_network.node[4].core_layer 	data[4] 	50683
scalar tree_4_3_u03_r2_network.node[4].content_store 	p_hit[4] 	0
scalar tree_4_3_u03_r2_network.node[4].content_store 	hits[4] 	0
scalar tree_4_3_u03_r2_network.node[4].content_store 	misses[4] 	50686
scalar tree_4_3_u03_r2_network.node[4].content_store 	decision_yes[4] 	0
scalar tree_4_3_u03_r2_network.node[4].content_store 	decision_no[4] 	50683
scalar tree_4_3_u03_r2_network.node[4].content_store 	decision_ratio[4] 	0
scalar tree_4_3_u03_r2_network.node[5].core_layer 	interests[5] 	30187
scalar tree_4_3_u03_r2_network.node[5].core_layer 	data[5] 	30183
scalar tree_4_3_u03_r2_network.node[5].content_store 	p_hit[5] 	0
scalar tree_4_3_u03_r2_network.node[5].content_store 	hits[5] 	0
scalar tree_4_3_u03_r2_network.node[5].content_store 	misses[5] 	30187
scalar tree_4_3_u03_r2_network.node[5].content_store 	decision_yes[5] 	0
scalar tree_4_3_u03_r2_network.node[5].content_store 	decision_no[5] 	30183
scalar tree_4_3_u03_r2_network.node[5].content_store 	decision_ratio[5] 	0
scalar tree_4_3_u03_r2_network.node[6].core_layer 	interests[6] 	10084
scalar tree_4_3_u03_r2_network.node[6].core_layer 	data[6] 	10084
scalar tree_4_3_u03_r2_network.node[6].content_store 	p_hit[6] 	0
scalar tree_4_3_u03_r2_network.node[6].content_store 	hits[6] 	0
scalar tree_4_3_u03_r2_network.node[6].content_store 	misses[6] 	10084
scalar tree_4_3_u03_r2_network.node[6].content_store 	decision_yes[6] 	0
scalar tree_4_3_u03_r2_network.node[6].content_store 	decision_no[6] 	10084
scalar tree_4_3_u03_r2_network.node[6].content_store 	decision_ratio[6] 	0
scalar tree_4_3_u03_r2_network.node[7].core_layer 	interests[7] 	50967
scalar tree_4_3_u03_r2_network.node[7].core_layer 	data[7] 	50959
scalar tree_4_3_u03_r2_network.node[7].content_store 	p_hit[7] 	0
scalar tree_4_3_u03_r2_network.node[7].content_store 	hits[7] 	0
scalar tree_4_3_u03_r2_network.node[7].content_store 	misses[7] 	50967
scalar tree_4_3_u03_r2_network.node[7].content_store 	decision_yes[7] 	0
scalar tree_4_3_u03_r2_network.node[7].content_store 	decision_no[7] 	50959
scalar tree_4_3_u03_r2_network.node[7].content_store 	decision_ratio[7] 	0
scalar tree_4_3_u03_r2_network.node[8].core_layer 	interests[8] 	20422
scalar tree_4_3_u03_r2_network.node[8].core_layer 	data[8] 	20422
scalar tree_4_3_u03_r2_network.node[8].content_store 	p_hit[8] 	0
scalar tree_4_3_u03_r2_network.node[8].content_store 	hits[8] 	0
scalar tree_4_3_u03_r2_network.node[8].content_store 	misses[8] 	20422
scalar tree_4_3_u03_r2_network.node[8].content_store 	decision_yes[8] 	0
scalar tree_4_3_u03_r2_network.node[8].content_store 	decision_no[8] 	20422
scalar tree_4_3_u03_r2_network.node[8].content_store 	decision_ratio[8] 	0
scalar tree_4_3_u03_r2_network.node[9].core_layer 	interests[9] 	20200
scalar tree_4_3_u03_r2_network.node[9].core_layer 	data[9] 	20200
scalar tree_4_3_u03_r2_network.node[9].content_store 	p_hit[9] 	0
scalar tree_4_3_u03_r2_network.node[9].content_store 	hits[9] 	0
scalar tree_4_3_u03_r2_network.node[9].content_store 	misses[9] 	20200
scalar tree_4_3_u03_r2_network.node[9].content_store 	decision_yes[9] 	0
scalar tree_4_3_u03_r2_network.node[9].content_store 	decision_no[9] 	20200
scalar tree_4_3_u03_r2_network.node[9].content_store 	decision_ratio[9] 	0
scalar tree_4_3_u03_r2_network.node[10].core_layer 	interests[10] 	30120
scalar tree_4_3_u03_r2_network.node[10].core_layer 	data[10] 	30118
scalar tree_4_3_u03_r2_network.node[10].content_store 	p_hit[10] 	0
scalar tree_4_3_u03_r2_network.node[10].content_store 	hits[10] 	0
scalar tree_4_3_u03_r2_network.node[10].content_store 	misses[10] 	30120
scalar tree_4_3_u03_r2_network.node[10].content_store 	decision_yes[10] 	0
scalar tree_4_3_u03_r2_network.node[10].content_store 	decision_no[10] 	30118
scalar tree_4_3_u03_r2_network.node[10].content_store 	decision_ratio[10] 	0
scalar tree_4_3_u03_r2_network.node[11].core_layer 	interests[11] 	30338
scalar tree_4_3_u03_r2_network.node[11].core_layer 	data[11] 	30338
scalar tree_4_3_u03_r2_network.node[11].content_store 	p_hit[11] 	0
scalar tree_4_3_u03_r2_network.node[11].content_store 	hits[11] 	0
scalar tree_4_3_u03_r2_network.node[11].content_store 	misses[11] 	30338
scalar tree_4_3_u03_r2_network.node[11].content_store 	decision_yes[11] 	0
scalar tree_4_3_u03_r2_network.node[11].content_store 	decision_no[11] 	30338
scalar tree_4_3_u03_r2_network.node[11].content_store 	decision_ratio[11] 	0
scalar tree_4_3_u03_r2_network.node[12].core_layer 	interests[12] 	30299
scalar tree_4_3_u03_r2_network.node[12].core_layer 	data[12] 	30297
scalar tree_4_3_u03_r2_network.node[12].content_store 	p_hit[12] 	0
scalar tree_4_3_u03_r2_network.node[12].content_store 	hits[12] 	0
scalar tree_4_3_u03_r2_network.node[12].content_store 	misses[12] 	30299
scalar tree_4_3_u03_r2_network.node[12].content_store 	decision_yes[12] 	0
scalar tree_4_3_u03_r2_network.node[12].content_store 	decision_no[12] 	30297
scalar tree_4_3_u03_r2_network.node[12].content_store 	decision_ratio[12] 	0
scalar tree_4_3_u03_r2_network.node[13].core_layer 	interests[13] 	12034
scalar tree_4_3_u03_r2_network.node[13].core_layer 	data[13] 	10082
scalar tree_4_3_u03_r2_network.node[13].content_store 	p_hit[13] 	0.16212398205086
scalar tree_4_3_u03_r2_network.node[13].content_store 	hits[13] 	1951
scalar tree_4_3_u03_r2_network.node[13].content_store 	misses[13] 	10083
scalar tree_4_3_u03_r2_network.node[13].content_store 	decision_yes[13] 	10082
scalar tree_4_3_u03_r2_network.node[13].content_store 	decision_no[13] 	0
scalar tree_4_3_u03_r2_network.node[13].content_store 	decision_ratio[13] 	1
scalar tree_4_3_u03_r2_network.node[14].core_layer 	interests[14] 	11922
scalar tree_4_3_u03_r2_network.node[14].core_layer 	data[14] 	10068
scalar tree_4_3_u03_r2_network.node[14].content_store 	p_hit[14] 	0.15551082033216
scalar tree_4_3_u03_r2_network.node[14].content_store 	hits[14] 	1854
scalar tree_4_3_u03_r2_network.node[14].content_store 	misses[14] 	10068
scalar tree_4_3_u03_r2_network.node[14].content_store 	decision_yes[14] 	10068
scalar tree_4_3_u03_r2_network.node[14].content_store 	decision_no[14] 	0
scalar tree_4_3_u03_r2_network.node[14].content_store 	decision_ratio[14] 	1
scalar tree_4_3_u03_r2_network.node[15].core_layer 	interests[15] 	11943
scalar tree_4_3_u03_r2_network.node[15].core_layer 	data[15] 	10075
scalar tree_4_3_u03_r2_network.node[15].content_store 	p_hit[15] 	0.15640961232521
scalar tree_4_3_u03_r2_network.node[15].content_store 	hits[15] 	1868
scalar tree_4_3_u03_r2_network.node[15].content_store 	misses[15] 	10075
scalar tree_4_3_u03_r2_network.node[15].content_store 	decision_yes[15] 	10075
scalar tree_4_3_u03_r2_network.node[15].content_store 	decision_no[15] 	0
scalar tree_4_3_u03_r2_network.node[15].content_store 	decision_ratio[15] 	1
scalar tree_4_3_u03_r2_network.node[16].core_layer 	interests[16] 	12187
scalar tree_4_3_u03_r2_network.node[16].core_layer 	data[16] 	10293
scalar tree_4_3_u03_r2_network.node[16].content_store 	p_hit[16] 	0.15524739476491
scalar tree_4_3_u03_r2_network.node[16].content_store 	hits[16] 	1892
scalar tree_4_3_u03_r2_network.node[16].content_store 	misses[16] 	10295
scalar tree_4_3_u03_r2_network.node[16].content_store 	decision_yes[16] 	10293
scalar tree_4_3_u03_r2_network.node[16].content_store 	decision_no[16] 	0
scalar tree_4_3_u03_r2_network.node[16].content_store 	decision_ratio[16] 	1
scalar tree_4_3_u03_r2_network.node[17].core_layer 	interests[17] 	12019
scalar tree_4_3_u03_r2_network.node[17].core_layer 	data[17] 	10140
scalar tree_4_3_u03_r2_network.node[17].content_store 	p_hit[17] 	0.15616939845245
scalar tree_4_3_u03_r2_network.node[17].content_store 	hits[17] 	1877
scalar tree_4_3_u03_r2_network.node[17].content_store 	misses[17] 	10142
scalar tree_4_3_u03_r2_network.node[17].content_store 	decision_yes[17] 	10140
scalar tree_4_3_u03_r2_network.node[17].content_store 	decision_no[17] 	0
scalar tree_4_3_u03_r2_network.node[17].content_store 	decision_ratio[17] 	1
scalar tree_4_3_u03_r2_network.node[18].core_layer 	interests[18] 	11939
scalar tree_4_3_u03_r2_network.node[18].core_layer 	data[18] 	9984
scalar tree_4_3_u03_r2_network.node[18].content_store 	p_hit[18] 	0.16374905771003
scalar tree_4_3_u03_r2_network.node[18].content_store 	hits[18] 	1955
scalar tree_4_3_u03_r2_network.node[18].content_store 	misses[18] 	9984
scalar tree_4_3_u03_r2_network.node[18].content_store 	decision_yes[18] 	9984
scalar tree_4_3_u03_r2_network.node[18].content_store 	decision_no[18] 	0
scalar tree_4_3_u03_r2_network.node[18].content_store 	decision_ratio[18] 	1
scalar tree_4_3_u03_r2_network.node[19].core_layer 	interests[19] 	12001
scalar tree_4_3_u03_r2_network.node[19].core_layer 	data[19] 	10168
scalar tree_4_3_u03_r2_network.node[19].content_store 	p_hit[19] 	0.15265394550454
scalar tree_4_3_u03_r2_network.node[19].content_store 	hits[19] 	1832
scalar tree_4_3_u03_r2_network.node[19].content_store 	misses[19] 	10169
scalar tree_4_3_u03_r2_network.node[19].content_store 	decision_yes[19] 	10168
scalar tree_4_3_u03_r2_network.node[19].content_store 	decision_no[19] 	0
scalar tree_4_3_u03_r2_network.node[19].content_store 	decision_ratio[19] 	1
scalar tree_4_3_u03_r2_network.node[20].core_layer 	interests[20] 	11971
scalar tree_4_3_u03_r2_network.node[20].core_layer 	data[20] 	10062
scalar tree_4_3_u03_r2_network.node[20].content_store 	p_hit[20] 	0.15930164564364
scalar tree_4_3_u03_r2_network.node[20].content_store 	hits[20] 	1907
scalar tree_4_3_u03_r2_network.node[20].content_store 	misses[20] 	10064
scalar tree_4_3_u03_r2_network.node[20].content_store 	decision_yes[20] 	10062
scalar tree_4_3_u03_r2_network.node[20].content_store 	decision_no[20] 	0
scalar tree_4_3_u03_r2_network.node[20].content_store 	decision_ratio[20] 	1
scalar tree_4_3_u03_r2_network.node[21].core_layer 	interests[21] 	11907
scalar tree_4_3_u03_r2_network.node[21].core_layer 	data[21] 	10084
scalar tree_4_3_u03_r2_network.node[21].content_store 	p_hit[21] 	0.15301923238431
scalar tree_4_3_u03_r2_network.node[21].content_store 	hits[21] 	1822
scalar tree_4_3_u03_r2_network.node[21].content_store 	misses[21] 	10085
scalar tree_4_3_u03_r2_network.node[21].content_store 	decision_yes[21] 	10084
scalar tree_4_3_u03_r2_network.node[21].content_store 	decision_no[21] 	0
scalar tree_4_3_u03_r2_network.node[21].content_store 	decision_ratio[21] 	1
scalar tree_4_3_u03_r2_network.node[22].core_layer 	interests[22] 	12032
scalar tree_4_3_u03_r2_network.node[22].core_layer 	data[22] 	10203
scalar tree_4_3_u03_r2_network.node[22].content_store 	p_hit[22] 	0.15192819148936
scalar tree_4_3_u03_r2_network.node[22].content_store 	hits[22] 	1828
scalar tree_4_3_u03_r2_network.node[22].content_store 	misses[22] 	10204
scalar tree_4_3_u03_r2_network.node[22].content_store 	decision_yes[22] 	10203
scalar tree_4_3_u03_r2_network.node[22].content_store 	decision_no[22] 	0
scalar tree_4_3_u03_r2_network.node[22].content_store 	decision_ratio[22] 	1
scalar tree_4_3_u03_r2_network.node[23].core_layer 	interests[23] 	11915
scalar tree_4_3_u03_r2_network.node[23].core_layer 	data[23] 	10051
scalar tree_4_3_u03_r2_network.node[23].content_store 	p_hit[23] 	0.1564414603441
scalar tree_4_3_u03_r2_network.node[23].content_store 	hits[23] 	1864
scalar tree_4_3_u03_r2_network.node[23].content_store 	misses[23] 	10051
scalar tree_4_3_u03_r2_network.node[23].content_store 	decision_yes[23] 	10051
scalar tree_4_3_u03_r2_network.node[23].content_store 	decision_no[23] 	0
scalar tree_4_3_u03_r2_network.node[23].content_store 	decision_ratio[23] 	1
scalar tree_4_3_u03_r2_network.node[24].core_layer 	interests[24] 	11934
scalar tree_4_3_u03_r2_network.node[24].core_layer 	data[24] 	10040
scalar tree_4_3_u03_r2_network.node[24].content_store 	p_hit[24] 	0.15845483492542
scalar tree_4_3_u03_r2_network.node[24].content_store 	hits[24] 	1891
scalar tree_4_3_u03_r2_network.node[24].content_store 	misses[24] 	10043
scalar tree_4_3_u03_r2_network.node[24].content_store 	decision_yes[24] 	10040
scalar tree_4_3_u03_r2_network.node[24].content_store 	decision_no[24] 	0
scalar tree_4_3_u03_r2_network.node[24].content_store 	decision_ratio[24] 	1
scalar tree_4_3_u03_r2_network.node[25].core_layer 	interests[25] 	12080
scalar tree_4_3_u03_r2_network.node[25].core_layer 	data[25] 	10255
scalar tree_4_3_u03_r2_network.node[25].content_store 	p_hit[25] 	0.1510761589404
scalar tree_4_3_u03_r2_network.node[25].content_store 	hits[25] 	1825
scalar tree_4_3_u03_r2_network.node[25].content_store 	misses[25] 	10255
scalar tree_4_3_u03_r2_network.node[25].content_store 	decision_yes[25] 	10255
scalar tree_4_3_u03_r2_network.node[25].content_store 	decision_no[25] 	0
scalar tree_4_3_u03_r2_network.node[25].content_store 	decision_ratio[25] 	1
scalar tree_4_3_u03_r2_network.node[26].core_layer 	interests[26] 	11920
scalar tree_4_3_u03_r2_network.node[26].core_layer 	data[26] 	10092
scalar tree_4_3_u03_r2_network.node[26].content_store 	p_hit[26] 	0.15335570469799
scalar tree_4_3_u03_r2_network.node[26].content_store 	hits[26] 	1828
scalar tree_4_3_u03_r2_network.node[26].content_store 	misses[26] 	10092
scalar tree_4_3_u03_r2_network.node[26].content_store 	decision_yes[26] 	10092
scalar tree_4_3_u03_r2_network.node[26].content_store 	decision_no[26] 	0
scalar tree_4_3_u03_r2_network.node[26].content_store 	decision_ratio[26] 	1
scalar tree_4_3_u03_r2_network.node[27].core_layer 	interests[27] 	12263
scalar tree_4_3_u03_r2_network.node[27].core_layer 	data[27] 	10330
scalar tree_4_3_u03_r2_network.node[27].content_store 	p_hit[27] 	0.15754709288102
scalar tree_4_3_u03_r2_network.node[27].content_store 	hits[27] 	1932
scalar tree_4_3_u03_r2_network.node[27].content_store 	misses[27] 	10331
scalar tree_4_3_u03_r2_network.node[27].content_store 	decision_yes[27] 	10330
scalar tree_4_3_u03_r2_network.node[27].content_store 	decision_no[27] 	0
scalar tree_4_3_u03_r2_network.node[27].content_store 	decision_ratio[27] 	1
scalar tree_4_3_u03_r2_network.node[28].core_layer 	interests[28] 	12292
scalar tree_4_3_u03_r2_network.node[28].core_layer 	data[28] 	10418
scalar tree_4_3_u03_r2_network.node[28].content_store 	p_hit[28] 	0.15221282134722
scalar tree_4_3_u03_r2_network.node[28].content_store 	hits[28] 	1871
scalar tree_4_3_u03_r2_network.node[28].content_store 	misses[28] 	10421
scalar tree_4_3_u03_r2_network.node[28].content_store 	decision_yes[28] 	10418
scalar tree_4_3_u03_r2_network.node[28].content_store 	decision_no[28] 	0
scalar tree_4_3_u03_r2_network.node[28].content_store 	decision_ratio[28] 	1
scalar tree_4_3_u03_r2_network.node[29].core_layer 	interests[29] 	11876
scalar tree_4_3_u03_r2_network.node[29].core_layer 	data[29] 	10034
scalar tree_4_3_u03_r2_network.node[29].content_store 	p_hit[29] 	0.15518693162681
scalar tree_4_3_u03_r2_network.node[29].content_store 	hits[29] 	1843
scalar tree_4_3_u03_r2_network.node[29].content_store 	misses[29] 	10033
scalar tree_4_3_u03_r2_network.node[29].content_store 	decision_yes[29] 	10034
scalar tree_4_3_u03_r2_network.node[29].content_store 	decision_no[29] 	0
scalar tree_4_3_u03_r2_network.node[29].content_store 	decision_ratio[29] 	1
scalar tree_4_3_u03_r2_network.node[30].core_layer 	interests[30] 	12000
scalar tree_4_3_u03_r2_network.node[30].core_layer 	data[30] 	10166
scalar tree_4_3_u03_r2_network.node[30].content_store 	p_hit[30] 	0.15275
scalar tree_4_3_u03_r2_network.node[30].content_store 	hits[30] 	1833
scalar tree_4_3_u03_r2_network.node[30].content_store 	misses[30] 	10167
scalar tree_4_3_u03_r2_network.node[30].content_store 	decision_yes[30] 	10166
scalar tree_4_3_u03_r2_network.node[30].content_store 	decision_no[30] 	0
scalar tree_4_3_u03_r2_network.node[30].content_store 	decision_ratio[30] 	1
scalar tree_4_3_u03_r2_network.node[31].core_layer 	interests[31] 	11915
scalar tree_4_3_u03_r2_network.node[31].core_layer 	data[31] 	10135
scalar tree_4_3_u03_r2_network.node[31].content_store 	p_hit[31] 	0.1493075954679
scalar tree_4_3_u03_r2_network.node[31].content_store 	hits[31] 	1779
scalar tree_4_3_u03_r2_network.node[31].content_store 	misses[31] 	10136
scalar tree_4_3_u03_r2_network.node[31].content_store 	decision_yes[31] 	10135
scalar tree_4_3_u03_r2_network.node[31].content_store 	decision_no[31] 	0
scalar tree_4_3_u03_r2_network.node[31].content_store 	decision_ratio[31] 	1
scalar tree_4_3_u03_r2_network.node[32].core_layer 	interests[32] 	11938
scalar tree_4_3_u03_r2_network.node[32].core_layer 	data[32] 	10051
scalar tree_4_3_u03_r2_network.node[32].content_store 	p_hit[32] 	0.15806667783548
scalar tree_4_3_u03_r2_network.node[32].content_store 	hits[32] 	1887
scalar tree_4_3_u03_r2_network.node[32].content_store 	misses[32] 	10051
scalar tree_4_3_u03_r2_network.node[32].content_store 	decision_yes[32] 	10051
scalar tree_4_3_u03_r2_network.node[32].content_store 	decision_no[32] 	0
scalar tree_4_3_u03_r2_network.node[32].content_store 	decision_ratio[32] 	1
scalar tree_4_3_u03_r2_network.node[33].core_layer 	interests[33] 	11890
scalar tree_4_3_u03_r2_network.node[33].core_layer 	data[33] 	9934
scalar tree_4_3_u03_r2_network.node[33].content_store 	p_hit[33] 	0.16442388561817
scalar tree_4_3_u03_r2_network.node[33].content_store 	hits[33] 	1955
scalar tree_4_3_u03_r2_network.node[33].content_store 	misses[33] 	9935
scalar tree_4_3_u03_r2_network.node[33].content_store 	decision_yes[33] 	9934
scalar tree_4_3_u03_r2_network.node[33].content_store 	decision_no[33] 	0
scalar tree_4_3_u03_r2_network.node[33].content_store 	decision_ratio[33] 	1
scalar tree_4_3_u03_r2_network.node[34].core_layer 	interests[34] 	11919
scalar tree_4_3_u03_r2_network.node[34].core_layer 	data[34] 	10029
scalar tree_4_3_u03_r2_network.node[34].content_store 	p_hit[34] 	0.15857034986157
scalar tree_4_3_u03_r2_network.node[34].content_store 	hits[34] 	1890
scalar tree_4_3_u03_r2_network.node[34].content_store 	misses[34] 	10029
scalar tree_4_3_u03_r2_network.node[34].content_store 	decision_yes[34] 	10029
scalar tree_4_3_u03_r2_network.node[34].content_store 	decision_no[34] 	0
scalar tree_4_3_u03_r2_network.node[34].content_store 	decision_ratio[34] 	1
scalar tree_4_3_u03_r2_network.node[35].core_layer 	interests[35] 	12086
scalar tree_4_3_u03_r2_network.node[35].core_layer 	data[35] 	10187
scalar tree_4_3_u03_r2_network.node[35].content_store 	p_hit[35] 	0.1571239450604
scalar tree_4_3_u03_r2_network.node[35].content_store 	hits[35] 	1899
scalar tree_4_3_u03_r2_network.node[35].content_store 	misses[35] 	10187
scalar tree_4_3_u03_r2_network.node[35].content_store 	decision_yes[35] 	10187
scalar tree_4_3_u03_r2_network.node[35].content_store 	decision_no[35] 	0
scalar tree_4_3_u03_r2_network.node[35].content_store 	decision_ratio[35] 	1
scalar tree_4_3_u03_r2_network.node[36].core_layer 	interests[36] 	11985
scalar tree_4_3_u03_r2_network.node[36].core_layer 	data[36] 	10123
scalar tree_4_3_u03_r2_network.node[36].content_store 	p_hit[36] 	0.15544430538173
scalar tree_4_3_u03_r2_network.node[36].content_store 	hits[36] 	1863
scalar tree_4_3_u03_r2_network.node[36].content_store 	misses[36] 	10122
scalar tree_4_3_u03_r2_network.node[36].content_store 	decision_yes[36] 	10123
scalar tree_4_3_u03_r2_network.node[36].content_store 	decision_no[36] 	0
scalar tree_4_3_u03_r2_network.node[36].content_store 	decision_ratio[36] 	1
scalar tree_4_3_u03_r2_network.node[37].core_layer 	interests[37] 	11998
scalar tree_4_3_u03_r2_network.node[37].core_layer 	data[37] 	10134
scalar tree_4_3_u03_r2_network.node[37].content_store 	p_hit[37] 	0.15527587931322
scalar tree_4_3_u03_r2_network.node[37].content_store 	hits[37] 	1863
scalar tree_4_3_u03_r2_network.node[37].content_store 	misses[37] 	10135
scalar tree_4_3_u03_r2_network.node[37].content_store 	decision_yes[37] 	10134
scalar tree_4_3_u03_r2_network.node[37].content_store 	decision_no[37] 	0
scalar tree_4_3_u03_r2_network.node[37].content_store 	decision_ratio[37] 	1
scalar tree_4_3_u03_r2_network.node[38].core_layer 	interests[38] 	12007
scalar tree_4_3_u03_r2_network.node[38].core_layer 	data[38] 	10095
scalar tree_4_3_u03_r2_network.node[38].content_store 	p_hit[38] 	0.15907387357375
scalar tree_4_3_u03_r2_network.node[38].content_store 	hits[38] 	1910
scalar tree_4_3_u03_r2_network.node[38].content_store 	misses[38] 	10097
scalar tree_4_3_u03_r2_network.node[38].content_store 	decision_yes[38] 	10095
scalar tree_4_3_u03_r2_network.node[38].content_store 	decision_no[38] 	0
scalar tree_4_3_u03_r2_network.node[38].content_store 	decision_ratio[38] 	1
scalar tree_4_3_u03_r2_network.node[39].core_layer 	interests[39] 	11986
scalar tree_4_3_u03_r2_network.node[39].core_layer 	data[39] 	10069
scalar tree_4_3_u03_r2_network.node[39].content_store 	p_hit[39] 	0.15993659269147
scalar tree_4_3_u03_r2_network.node[39].content_store 	hits[39] 	1917
scalar tree_4_3_u03_r2_network.node[39].content_store 	misses[39] 	10069
scalar tree_4_3_u03_r2_network.node[39].content_store 	decision_yes[39] 	10069
scalar tree_4_3_u03_r2_network.node[39].content_store 	decision_no[39] 	0
scalar tree_4_3_u03_r2_network.node[39].content_store 	decision_ratio[39] 	1
scalar tree_4_3_u03_r2_network.client[13] 	hdistance[13] 	3.3514501786753
scalar tree_4_3_u03_r2_network.client[13] 	downloads[13] 	12033
scalar tree_4_3_u03_r2_network.client[13] 	avg_time[13] 	0.005026952797
scalar tree_4_3_u03_r2_network.client[14] 	hdistance[14] 	3.3779567186714
scalar tree_4_3_u03_r2_network.client[14] 	downloads[14] 	11922
scalar tree_4_3_u03_r2_network.client[14] 	avg_time[14] 	0.005066713312
scalar tree_4_3_u03_r2_network.client[15] 	hdistance[15] 	3.3743615506992
scalar tree_4_3_u03_r2_network.client[15] 	downloads[15] 	11943
scalar tree_4_3_u03_r2_network.client[15] 	avg_time[15] 	0.005061539332
scalar tree_4_3_u03_r2_network.client[16] 	hdistance[16] 	3.3789084940501
scalar tree_4_3_u03_r2_network.client[16] 	downloads[16] 	12185
scalar tree_4_3_u03_r2_network.client[16] 	avg_time[16] 	0.005068247529
scalar tree_4_3_u03_r2_network.client[17] 	hdistance[17] 	3.3752184405426
scalar tree_4_3_u03_r2_network.client[17] 	downloads[17] 	12017
scalar tree_4_3_u03_r2_network.client[17] 	avg_time[17] 	0.005062035394
scalar tree_4_3_u03_r2_network.client[18] 	hdistance[18] 	3.3450037691599
scalar tree_4_3_u03_r2_network.client[18] 	downloads[18] 	11939
scalar tree_4_3_u03_r2_network.client[18] 	avg_time[18] 	0.005017220462
scalar tree_4_3_u03_r2_network.client[19] 	hdistance[19] 	3.3893333333333
scalar tree_4_3_u03_r2_network.client[19] 	downloads[19] 	12000
scalar tree_4_3_u03_r2_network.client[19] 	avg_time[19] 	0.00508395599
scalar tree_4_3_u03_r2_network.client[20] 	hdistance[20] 	3.3626869412649
scalar tree_4_3_u03_r2_network.client[20] 	downloads[20] 	11969
scalar tree_4_3_u03_r2_network.client[20] 	avg_time[20] 	0.005043916265
scalar tree_4_3_u03_r2_network.client[21] 	hdistance[21] 	3.3878716613472
scalar tree_4_3_u03_r2_network.client[21] 	downloads[21] 	11906
scalar tree_4_3_u03_r2_network.client[21] 	avg_time[21] 	0.00508152186
scalar tree_4_3_u03_r2_network.client[22] 	hdistance[22] 	3.392236721802
scalar tree_4_3_u03_r2_network.client[22] 	downloads[22] 	12031
scalar tree_4_3_u03_r2_network.client[22] 	avg_time[22] 	0.005087204274
scalar tree_4_3_u03_r2_network.client[23] 	hdistance[23] 	3.3742341586236
scalar tree_4_3_u03_r2_network.client[23] 	downloads[23] 	11915
scalar tree_4_3_u03_r2_network.client[23] 	avg_time[23] 	0.005061055216
scalar tree_4_3_u03_r2_network.client[24] 	hdistance[24] 	3.3660212890789
scalar tree_4_3_u03_r2_network.client[24] 	downloads[24] 	11931
scalar tree_4_3_u03_r2_network.client[24] 	avg_time[24] 	0.005048094539
scalar tree_4_3_u03_r2_network.client[25] 	hdistance[25] 	3.3956953642384
scalar tree_4_3_u03_r2_network.client[25] 	downloads[25] 	12080
scalar tree_4_3_u03_r2_network.client[25] 	avg_time[25] 	0.005092796012
scalar tree_4_3_u03_r2_network.client[26] 	hdistance[26] 	3.3865771812081
scalar tree_4_3_u03_r2_network.client[26] 	downloads[26] 	11920
scalar tree_4_3_u03_r2_network.client[26] 	avg_time[26] 	0.005079862803
scalar tree_4_3_u03_r2_network.client[27] 	hdistance[27] 	3.369760234872
scalar tree_4_3_u03_r2_network.client[27] 	downloads[27] 	12262
scalar tree_4_3_u03_r2_network.client[27] 	avg_time[27] 	0.005054266506
scalar tree_4_3_u03_r2_network.client[28] 	hdistance[28] 	3.3910000813736
scalar tree_4_3_u03_r2_network.client[28] 	downloads[28] 	12289
scalar tree_4_3_u03_r2_network.client[28] 	avg_time[28] 	0.005085736806
scalar tree_4_3_u03_r2_network.client[29] 	hdistance[29] 	3.379304538183
scalar tree_4_3_u03_r2_network.client[29] 	downloads[29] 	11877
scalar tree_4_3_u03_r2_network.client[29] 	avg_time[29] 	0.005068953833
scalar tree_4_3_u03_r2_network.client[30] 	hdistance[30] 	3.3889490790899
scalar tree_4_3_u03_r2_network.client[30] 	downloads[30] 	11999
scalar tree_4_3_u03_r2_network.client[30] 	avg_time[30] 	0.005083246233
scalar tree_4_3_u03_r2_network.client[31] 	hdistance[31] 	3.402719489676
scalar tree_4_3_u03_r2_network.client[31] 	downloads[31] 	11914
scalar tree_4_3_u03_r2_network.client[31] 	avg_time[31] 	0.005103861034
scalar tree_4_3_u03_r2_network.client[32] 	hdistance[32] 	3.3677332886581
scalar tree_4_3_u03_r2_network.client[32] 	downloads[32] 	11938
scalar tree_4_3_u03_r2_network.client[32] 	avg_time[32] 	0.005051490587
scalar tree_4_3_u03_r2_network.client[33] 	hdistance[33] 	3.3422491378585
scalar tree_4_3_u03_r2_network.client[33] 	downloads[33] 	11889
scalar tree_4_3_u03_r2_network.client[33] 	avg_time[33] 	0.005013302411
scalar tree_4_3_u03_r2_network.client[34] 	hdistance[34] 	3.3657186005537
scalar tree_4_3_u03_r2_network.client[34] 	downloads[34] 	11919
scalar tree_4_3_u03_r2_network.client[34] 	avg_time[34] 	0.005048471593
scalar tree_4_3_u03_r2_network.client[35] 	hdistance[35] 	3.3715042197584
scalar tree_4_3_u03_r2_network.client[35] 	downloads[35] 	12086
scalar tree_4_3_u03_r2_network.client[35] 	avg_time[35] 	0.005057116359
scalar tree_4_3_u03_r2_network.client[36] 	hdistance[36] 	3.3782746537627
scalar tree_4_3_u03_r2_network.client[36] 	downloads[36] 	11986
scalar tree_4_3_u03_r2_network.client[36] 	avg_time[36] 	0.005067397436
scalar tree_4_3_u03_r2_network.client[37] 	hdistance[37] 	3.3788447111778
scalar tree_4_3_u03_r2_network.client[37] 	downloads[37] 	11997
scalar tree_4_3_u03_r2_network.client[37] 	avg_time[37] 	0.005068042538
scalar tree_4_3_u03_r2_network.client[38] 	hdistance[38] 	3.3635985006247
scalar tree_4_3_u03_r2_network.client[38] 	downloads[38] 	12005
scalar tree_4_3_u03_r2_network.client[38] 	avg_time[38] 	0.00504519017
scalar tree_4_3_u03_r2_network.client[39] 	hdistance[39] 	3.3602536292341
scalar tree_4_3_u03_r2_network.client[39] 	downloads[39] 	11986
scalar tree_4_3_u03_r2_network.client[39] 	avg_time[39] 	0.005040377459
