version 2
run General-78-20160818-22:03:08-32642
attr a 0.9
attr cd lce
attr configname General
attr cr lru
attr datetime 20160818-22:03:08
attr experiment General
attr fsize 1
attr inifile hw5115/scenario_A/Edge.ini
attr iterationvars "$name=tree_4_3, $un=03, $rep=19, $scenario=Edge, $cd=lce, $cr=lru, $fsize=1, $a=0.9, $sl=spr, $ttl=1000, $variance=0.05"
attr iterationvars2 "$name=tree_4_3, $un=03, $rep=19, $scenario=Edge, $cd=lce, $cr=lru, $fsize=1, $a=0.9, $sl=spr, $ttl=1000, $variance=0.05, $repetition=0"
attr measurement "$name=tree_4_3, $un=03, $rep=19, $scenario=Edge, $cd=lce, $cr=lru, $fsize=1, $a=0.9, $sl=spr, $ttl=1000, $variance=0.05"
attr name tree_4_3
attr network networks.${name}_u${un}_r${rep}_network
attr processid 32642
attr rep 19
attr repetition 0
attr replication #0
attr resultdir results
attr runnumber 78
attr scenario Edge
attr seedset 19
attr sl spr
attr ttl 1000
attr un 03
attr variance 0.05

scalar . 	a 	0.9
scalar . 	fsize 	1
scalar . 	rep 	19
scalar . 	ttl 	1000
scalar . 	un 	03
scalar . 	variance 	0.05
scalar tree_4_3_u03_r19_network.content_distribution 	repo-0 	0
scalar tree_4_3_u03_r19_network.content_distribution 	client-0 	13
scalar tree_4_3_u03_r19_network.content_distribution 	client-1 	14
scalar tree_4_3_u03_r19_network.content_distribution 	client-2 	15
scalar tree_4_3_u03_r19_network.content_distribution 	client-3 	16
scalar tree_4_3_u03_r19_network.content_distribution 	client-4 	17
scalar tree_4_3_u03_r19_network.content_distribution 	client-5 	18
scalar tree_4_3_u03_r19_network.content_distribution 	client-6 	19
scalar tree_4_3_u03_r19_network.content_distribution 	client-7 	20
scalar tree_4_3_u03_r19_network.content_distribution 	client-8 	21
scalar tree_4_3_u03_r19_network.content_distribution 	client-9 	22
scalar tree_4_3_u03_r19_network.content_distribution 	client-10 	23
scalar tree_4_3_u03_r19_network.content_distribution 	client-11 	24
scalar tree_4_3_u03_r19_network.content_distribution 	client-12 	25
scalar tree_4_3_u03_r19_network.content_distribution 	client-13 	26
scalar tree_4_3_u03_r19_network.content_distribution 	client-14 	27
scalar tree_4_3_u03_r19_network.content_distribution 	client-15 	28
scalar tree_4_3_u03_r19_network.content_distribution 	client-16 	29
scalar tree_4_3_u03_r19_network.content_distribution 	client-17 	30
scalar tree_4_3_u03_r19_network.content_distribution 	client-18 	31
scalar tree_4_3_u03_r19_network.content_distribution 	client-19 	32
scalar tree_4_3_u03_r19_network.content_distribution 	client-20 	33
scalar tree_4_3_u03_r19_network.content_distribution 	client-21 	34
scalar tree_4_3_u03_r19_network.content_distribution 	client-22 	35
scalar tree_4_3_u03_r19_network.content_distribution 	client-23 	36
scalar tree_4_3_u03_r19_network.content_distribution 	client-24 	37
scalar tree_4_3_u03_r19_network.content_distribution 	client-25 	38
scalar tree_4_3_u03_r19_network.content_distribution 	client-26 	39
scalar tree_4_3_u03_r19_network.content_distribution 	repo-0_card 	100000
scalar tree_4_3_u03_r19_network.content_distribution 	repo-0_price 	0
scalar tree_4_3_u03_r19_network.statistics 	stabilization_time 	425.4
scalar tree_4_3_u03_r19_network.statistics 	p_hit 	0.1052522802823
scalar tree_4_3_u03_r19_network.statistics 	interests 	28553.375
scalar tree_4_3_u03_r19_network.statistics 	data 	20468.75
scalar tree_4_3_u03_r19_network.statistics 	hdistance 	3.3762420916949
scalar tree_4_3_u03_r19_network.statistics 	avg_time 	0.005064084278
scalar tree_4_3_u03_r19_network.statistics 	downloads 	323361
scalar tree_4_3_u03_r19_network.statistics 	total_cost 	0
scalar tree_4_3_u03_r19_network.statistics 	total_replicas 	100000
scalar tree_4_3_u03_r19_network.statistics 	inner_hit 	0.15605468810401
scalar tree_4_3_u03_r19_network.node[0].core_layer 	interests[0] 	272899
scalar tree_4_3_u03_r19_network.node[0].core_layer 	repo_load[0] 	272899
scalar tree_4_3_u03_r19_network.node[0].core_layer 	data[0] 	0
scalar tree_4_3_u03_r19_network.node[0].core_layer 	repo_int[0] 	272899
scalar tree_4_3_u03_r19_network.node[0].content_store 	p_hit[0] 	0
scalar tree_4_3_u03_r19_network.node[0].content_store 	hits[0] 	0
scalar tree_4_3_u03_r19_network.node[0].content_store 	misses[0] 	272899
scalar tree_4_3_u03_r19_network.node[0].content_store 	decision_yes[0] 	0
scalar tree_4_3_u03_r19_network.node[0].content_store 	decision_no[0] 	272899
scalar tree_4_3_u03_r19_network.node[0].content_store 	decision_ratio[0] 	0
scalar tree_4_3_u03_r19_network.node[1].core_layer 	interests[1] 	120760
scalar tree_4_3_u03_r19_network.node[1].core_layer 	data[1] 	120744
scalar tree_4_3_u03_r19_network.node[1].content_store 	p_hit[1] 	0
scalar tree_4_3_u03_r19_network.node[1].content_store 	hits[1] 	0
scalar tree_4_3_u03_r19_network.node[1].content_store 	misses[1] 	120760
scalar tree_4_3_u03_r19_network.node[1].content_store 	decision_yes[1] 	0
scalar tree_4_3_u03_r19_network.node[1].content_store 	decision_no[1] 	120744
scalar tree_4_3_u03_r19_network.node[1].content_store 	decision_ratio[1] 	0
scalar tree_4_3_u03_r19_network.node[2].core_layer 	interests[2] 	60975
scalar tree_4_3_u03_r19_network.node[2].core_layer 	data[2] 	60972
scalar tree_4_3_u03_r19_network.node[2].content_store 	p_hit[2] 	0
scalar tree_4_3_u03_r19_network.node[2].content_store 	hits[2] 	0
scalar tree_4_3_u03_r19_network.node[2].content_store 	misses[2] 	60975
scalar tree_4_3_u03_r19_network.node[2].content_store 	decision_yes[2] 	0
scalar tree_4_3_u03_r19_network.node[2].content_store 	decision_no[2] 	60972
scalar tree_4_3_u03_r19_network.node[2].content_store 	decision_ratio[2] 	0
scalar tree_4_3_u03_r19_network.node[3].core_layer 	interests[3] 	91184
scalar tree_4_3_u03_r19_network.node[3].core_layer 	data[3] 	91183
scalar tree_4_3_u03_r19_network.node[3].content_store 	p_hit[3] 	0
scalar tree_4_3_u03_r19_network.node[3].content_store 	hits[3] 	0
scalar tree_4_3_u03_r19_network.node[3].content_store 	misses[3] 	91184
scalar tree_4_3_u03_r19_network.node[3].content_store 	decision_yes[3] 	0
scalar tree_4_3_u03_r19_network.node[3].content_store 	decision_no[3] 	91183
scalar tree_4_3_u03_r19_network.node[3].content_store 	decision_ratio[3] 	0
scalar tree_4_3_u03_r19_network.node[4].core_layer 	interests[4] 	40056
scalar tree_4_3_u03_r19_network.node[4].core_layer 	data[4] 	40050
scalar tree_4_3_u03_r19_network.node[4].content_store 	p_hit[4] 	0
scalar tree_4_3_u03_r19_network.node[4].content_store 	hits[4] 	0
scalar tree_4_3_u03_r19_network.node[4].content_store 	misses[4] 	40056
scalar tree_4_3_u03_r19_network.node[4].content_store 	decision_yes[4] 	0
scalar tree_4_3_u03_r19_network.node[4].content_store 	decision_no[4] 	40050
scalar tree_4_3_u03_r19_network.node[4].content_store 	decision_ratio[4] 	0
scalar tree_4_3_u03_r19_network.node[5].core_layer 	interests[5] 	20107
scalar tree_4_3_u03_r19_network.node[5].core_layer 	data[5] 	20106
scalar tree_4_3_u03_r19_network.node[5].content_store 	p_hit[5] 	0
scalar tree_4_3_u03_r19_network.node[5].content_store 	hits[5] 	0
scalar tree_4_3_u03_r19_network.node[5].content_store 	misses[5] 	20107
scalar tree_4_3_u03_r19_network.node[5].content_store 	decision_yes[5] 	0
scalar tree_4_3_u03_r19_network.node[5].content_store 	decision_no[5] 	20106
scalar tree_4_3_u03_r19_network.node[5].content_store 	decision_ratio[5] 	0
scalar tree_4_3_u03_r19_network.node[6].core_layer 	interests[6] 	30493
scalar tree_4_3_u03_r19_network.node[6].core_layer 	data[6] 	30492
scalar tree_4_3_u03_r19_network.node[6].content_store 	p_hit[6] 	0
scalar tree_4_3_u03_r19_network.node[6].content_store 	hits[6] 	0
scalar tree_4_3_u03_r19_network.node[6].content_store 	misses[6] 	30493
scalar tree_4_3_u03_r19_network.node[6].content_store 	decision_yes[6] 	0
scalar tree_4_3_u03_r19_network.node[6].content_store 	decision_no[6] 	30492
scalar tree_4_3_u03_r19_network.node[6].content_store 	decision_ratio[6] 	0
scalar tree_4_3_u03_r19_network.node[7].core_layer 	interests[7] 	30113
scalar tree_4_3_u03_r19_network.node[7].core_layer 	data[7] 	30112
scalar tree_4_3_u03_r19_network.node[7].content_store 	p_hit[7] 	0
scalar tree_4_3_u03_r19_network.node[7].content_store 	hits[7] 	0
scalar tree_4_3_u03_r19_network.node[7].content_store 	misses[7] 	30113
scalar tree_4_3_u03_r19_network.node[7].content_store 	decision_yes[7] 	0
scalar tree_4_3_u03_r19_network.node[7].content_store 	decision_no[7] 	30112
scalar tree_4_3_u03_r19_network.node[7].content_store 	decision_ratio[7] 	0
scalar tree_4_3_u03_r19_network.node[8].core_layer 	interests[8] 	30458
scalar tree_4_3_u03_r19_network.node[8].core_layer 	data[8] 	30456
scalar tree_4_3_u03_r19_network.node[8].content_store 	p_hit[8] 	0
scalar tree_4_3_u03_r19_network.node[8].content_store 	hits[8] 	0
scalar tree_4_3_u03_r19_network.node[8].content_store 	misses[8] 	30458
scalar tree_4_3_u03_r19_network.node[8].content_store 	decision_yes[8] 	0
scalar tree_4_3_u03_r19_network.node[8].content_store 	decision_no[8] 	30456
scalar tree_4_3_u03_r19_network.node[8].content_store 	decision_ratio[8] 	0
scalar tree_4_3_u03_r19_network.node[9].core_layer 	interests[9] 	30520
scalar tree_4_3_u03_r19_network.node[9].core_layer 	data[9] 	30519
scalar tree_4_3_u03_r19_network.node[9].content_store 	p_hit[9] 	0
scalar tree_4_3_u03_r19_network.node[9].content_store 	hits[9] 	0
scalar tree_4_3_u03_r19_network.node[9].content_store 	misses[9] 	30520
scalar tree_4_3_u03_r19_network.node[9].content_store 	decision_yes[9] 	0
scalar tree_4_3_u03_r19_network.node[9].content_store 	decision_no[9] 	30519
scalar tree_4_3_u03_r19_network.node[9].content_store 	decision_ratio[9] 	0
scalar tree_4_3_u03_r19_network.node[10].core_layer 	interests[10] 	40260
scalar tree_4_3_u03_r19_network.node[10].core_layer 	data[10] 	40256
scalar tree_4_3_u03_r19_network.node[10].content_store 	p_hit[10] 	0
scalar tree_4_3_u03_r19_network.node[10].content_store 	hits[10] 	0
scalar tree_4_3_u03_r19_network.node[10].content_store 	misses[10] 	40260
scalar tree_4_3_u03_r19_network.node[10].content_store 	decision_yes[10] 	0
scalar tree_4_3_u03_r19_network.node[10].content_store 	decision_no[10] 	40256
scalar tree_4_3_u03_r19_network.node[10].content_store 	decision_ratio[10] 	0
scalar tree_4_3_u03_r19_network.node[11].core_layer 	interests[11] 	30599
scalar tree_4_3_u03_r19_network.node[11].core_layer 	data[11] 	30597
scalar tree_4_3_u03_r19_network.node[11].content_store 	p_hit[11] 	0
scalar tree_4_3_u03_r19_network.node[11].content_store 	hits[11] 	0
scalar tree_4_3_u03_r19_network.node[11].content_store 	misses[11] 	30599
scalar tree_4_3_u03_r19_network.node[11].content_store 	decision_yes[11] 	0
scalar tree_4_3_u03_r19_network.node[11].content_store 	decision_no[11] 	30597
scalar tree_4_3_u03_r19_network.node[11].content_store 	decision_ratio[11] 	0
scalar tree_4_3_u03_r19_network.node[12].core_layer 	interests[12] 	20329
scalar tree_4_3_u03_r19_network.node[12].core_layer 	data[12] 	20330
scalar tree_4_3_u03_r19_network.node[12].content_store 	p_hit[12] 	0
scalar tree_4_3_u03_r19_network.node[12].content_store 	hits[12] 	0
scalar tree_4_3_u03_r19_network.node[12].content_store 	misses[12] 	20329
scalar tree_4_3_u03_r19_network.node[12].content_store 	decision_yes[12] 	0
scalar tree_4_3_u03_r19_network.node[12].content_store 	decision_no[12] 	20330
scalar tree_4_3_u03_r19_network.node[12].content_store 	decision_ratio[12] 	0
scalar tree_4_3_u03_r19_network.node[13].core_layer 	interests[13] 	11832
scalar tree_4_3_u03_r19_network.node[13].core_layer 	data[13] 	9954
scalar tree_4_3_u03_r19_network.node[13].content_store 	p_hit[13] 	0.15863759296822
scalar tree_4_3_u03_r19_network.node[13].content_store 	hits[13] 	1877
scalar tree_4_3_u03_r19_network.node[13].content_store 	misses[13] 	9955
scalar tree_4_3_u03_r19_network.node[13].content_store 	decision_yes[13] 	9954
scalar tree_4_3_u03_r19_network.node[13].content_store 	decision_no[13] 	0
scalar tree_4_3_u03_r19_network.node[13].content_store 	decision_ratio[13] 	1
scalar tree_4_3_u03_r19_network.node[14].core_layer 	interests[14] 	11731
scalar tree_4_3_u03_r19_network.node[14].core_layer 	data[14] 	9890
scalar tree_4_3_u03_r19_network.node[14].content_store 	p_hit[14] 	0.15684937345495
scalar tree_4_3_u03_r19_network.node[14].content_store 	hits[14] 	1840
scalar tree_4_3_u03_r19_network.node[14].content_store 	misses[14] 	9891
scalar tree_4_3_u03_r19_network.node[14].content_store 	decision_yes[14] 	9890
scalar tree_4_3_u03_r19_network.node[14].content_store 	decision_no[14] 	0
scalar tree_4_3_u03_r19_network.node[14].content_store 	decision_ratio[14] 	1
scalar tree_4_3_u03_r19_network.node[15].core_layer 	interests[15] 	11963
scalar tree_4_3_u03_r19_network.node[15].core_layer 	data[15] 	10034
scalar tree_4_3_u03_r19_network.node[15].content_store 	p_hit[15] 	0.16099640558388
scalar tree_4_3_u03_r19_network.node[15].content_store 	hits[15] 	1926
scalar tree_4_3_u03_r19_network.node[15].content_store 	misses[15] 	10037
scalar tree_4_3_u03_r19_network.node[15].content_store 	decision_yes[15] 	10034
scalar tree_4_3_u03_r19_network.node[15].content_store 	decision_no[15] 	0
scalar tree_4_3_u03_r19_network.node[15].content_store 	decision_ratio[15] 	1
scalar tree_4_3_u03_r19_network.node[16].core_layer 	interests[16] 	12032
scalar tree_4_3_u03_r19_network.node[16].core_layer 	data[16] 	10178
scalar tree_4_3_u03_r19_network.node[16].content_store 	p_hit[16] 	0.15408909574468
scalar tree_4_3_u03_r19_network.node[16].content_store 	hits[16] 	1854
scalar tree_4_3_u03_r19_network.node[16].content_store 	misses[16] 	10178
scalar tree_4_3_u03_r19_network.node[16].content_store 	decision_yes[16] 	10178
scalar tree_4_3_u03_r19_network.node[16].content_store 	decision_no[16] 	0
scalar tree_4_3_u03_r19_network.node[16].content_store 	decision_ratio[16] 	1
scalar tree_4_3_u03_r19_network.node[17].core_layer 	interests[17] 	11815
scalar tree_4_3_u03_r19_network.node[17].core_layer 	data[17] 	10000
scalar tree_4_3_u03_r19_network.node[17].content_store 	p_hit[17] 	0.1535336436733
scalar tree_4_3_u03_r19_network.node[17].content_store 	hits[17] 	1814
scalar tree_4_3_u03_r19_network.node[17].content_store 	misses[17] 	10001
scalar tree_4_3_u03_r19_network.node[17].content_store 	decision_yes[17] 	10000
scalar tree_4_3_u03_r19_network.node[17].content_store 	decision_no[17] 	0
scalar tree_4_3_u03_r19_network.node[17].content_store 	decision_ratio[17] 	1
scalar tree_4_3_u03_r19_network.node[18].core_layer 	interests[18] 	11976
scalar tree_4_3_u03_r19_network.node[18].core_layer 	data[18] 	10106
scalar tree_4_3_u03_r19_network.node[18].content_store 	p_hit[18] 	0.1560621242485
scalar tree_4_3_u03_r19_network.node[18].content_store 	hits[18] 	1869
scalar tree_4_3_u03_r19_network.node[18].content_store 	misses[18] 	10107
scalar tree_4_3_u03_r19_network.node[18].content_store 	decision_yes[18] 	10106
scalar tree_4_3_u03_r19_network.node[18].content_store 	decision_no[18] 	0
scalar tree_4_3_u03_r19_network.node[18].content_store 	decision_ratio[18] 	1
scalar tree_4_3_u03_r19_network.node[19].core_layer 	interests[19] 	12056
scalar tree_4_3_u03_r19_network.node[19].core_layer 	data[19] 	10118
scalar tree_4_3_u03_r19_network.node[19].content_store 	p_hit[19] 	0.1607498341075
scalar tree_4_3_u03_r19_network.node[19].content_store 	hits[19] 	1938
scalar tree_4_3_u03_r19_network.node[19].content_store 	misses[19] 	10118
scalar tree_4_3_u03_r19_network.node[19].content_store 	decision_yes[19] 	10118
scalar tree_4_3_u03_r19_network.node[19].content_store 	decision_no[19] 	0
scalar tree_4_3_u03_r19_network.node[19].content_store 	decision_ratio[19] 	1
scalar tree_4_3_u03_r19_network.node[20].core_layer 	interests[20] 	11895
scalar tree_4_3_u03_r19_network.node[20].core_layer 	data[20] 	10121
scalar tree_4_3_u03_r19_network.node[20].content_store 	p_hit[20] 	0.14913829340059
scalar tree_4_3_u03_r19_network.node[20].content_store 	hits[20] 	1774
scalar tree_4_3_u03_r19_network.node[20].content_store 	misses[20] 	10121
scalar tree_4_3_u03_r19_network.node[20].content_store 	decision_yes[20] 	10121
scalar tree_4_3_u03_r19_network.node[20].content_store 	decision_no[20] 	0
scalar tree_4_3_u03_r19_network.node[20].content_store 	decision_ratio[20] 	1
scalar tree_4_3_u03_r19_network.node[21].core_layer 	interests[21] 	12111
scalar tree_4_3_u03_r19_network.node[21].core_layer 	data[21] 	10254
scalar tree_4_3_u03_r19_network.node[21].content_store 	p_hit[21] 	0.15316654281232
scalar tree_4_3_u03_r19_network.node[21].content_store 	hits[21] 	1855
scalar tree_4_3_u03_r19_network.node[21].content_store 	misses[21] 	10256
scalar tree_4_3_u03_r19_network.node[21].content_store 	decision_yes[21] 	10254
scalar tree_4_3_u03_r19_network.node[21].content_store 	decision_no[21] 	0
scalar tree_4_3_u03_r19_network.node[21].content_store 	decision_ratio[21] 	1
scalar tree_4_3_u03_r19_network.node[22].core_layer 	interests[22] 	11824
scalar tree_4_3_u03_r19_network.node[22].core_layer 	data[22] 	10003
scalar tree_4_3_u03_r19_network.node[22].content_store 	p_hit[22] 	0.15392422192152
scalar tree_4_3_u03_r19_network.node[22].content_store 	hits[22] 	1820
scalar tree_4_3_u03_r19_network.node[22].content_store 	misses[22] 	10004
scalar tree_4_3_u03_r19_network.node[22].content_store 	decision_yes[22] 	10003
scalar tree_4_3_u03_r19_network.node[22].content_store 	decision_no[22] 	0
scalar tree_4_3_u03_r19_network.node[22].content_store 	decision_ratio[22] 	1
scalar tree_4_3_u03_r19_network.node[23].core_layer 	interests[23] 	12007
scalar tree_4_3_u03_r19_network.node[23].core_layer 	data[23] 	10092
scalar tree_4_3_u03_r19_network.node[23].content_store 	p_hit[23] 	0.15949029732656
scalar tree_4_3_u03_r19_network.node[23].content_store 	hits[23] 	1915
scalar tree_4_3_u03_r19_network.node[23].content_store 	misses[23] 	10092
scalar tree_4_3_u03_r19_network.node[23].content_store 	decision_yes[23] 	10092
scalar tree_4_3_u03_r19_network.node[23].content_store 	decision_no[23] 	0
scalar tree_4_3_u03_r19_network.node[23].content_store 	decision_ratio[23] 	1
scalar tree_4_3_u03_r19_network.node[24].core_layer 	interests[24] 	11864
scalar tree_4_3_u03_r19_network.node[24].core_layer 	data[24] 	10018
scalar tree_4_3_u03_r19_network.node[24].content_store 	p_hit[24] 	0.1555967633176
scalar tree_4_3_u03_r19_network.node[24].content_store 	hits[24] 	1846
scalar tree_4_3_u03_r19_network.node[24].content_store 	misses[24] 	10018
scalar tree_4_3_u03_r19_network.node[24].content_store 	decision_yes[24] 	10018
scalar tree_4_3_u03_r19_network.node[24].content_store 	decision_no[24] 	0
scalar tree_4_3_u03_r19_network.node[24].content_store 	decision_ratio[24] 	1
scalar tree_4_3_u03_r19_network.node[25].core_layer 	interests[25] 	12067
scalar tree_4_3_u03_r19_network.node[25].core_layer 	data[25] 	10185
scalar tree_4_3_u03_r19_network.node[25].content_store 	p_hit[25] 	0.1559625424712
scalar tree_4_3_u03_r19_network.node[25].content_store 	hits[25] 	1882
scalar tree_4_3_u03_r19_network.node[25].content_store 	misses[25] 	10185
scalar tree_4_3_u03_r19_network.node[25].content_store 	decision_yes[25] 	10185
scalar tree_4_3_u03_r19_network.node[25].content_store 	decision_no[25] 	0
scalar tree_4_3_u03_r19_network.node[25].content_store 	decision_ratio[25] 	1
scalar tree_4_3_u03_r19_network.node[26].core_layer 	interests[26] 	12004
scalar tree_4_3_u03_r19_network.node[26].core_layer 	data[26] 	10146
scalar tree_4_3_u03_r19_network.node[26].content_store 	p_hit[26] 	0.15469843385538
scalar tree_4_3_u03_r19_network.node[26].content_store 	hits[26] 	1857
scalar tree_4_3_u03_r19_network.node[26].content_store 	misses[26] 	10147
scalar tree_4_3_u03_r19_network.node[26].content_store 	decision_yes[26] 	10146
scalar tree_4_3_u03_r19_network.node[26].content_store 	decision_no[26] 	0
scalar tree_4_3_u03_r19_network.node[26].content_store 	decision_ratio[26] 	1
scalar tree_4_3_u03_r19_network.node[27].core_layer 	interests[27] 	12172
scalar tree_4_3_u03_r19_network.node[27].core_layer 	data[27] 	10126
scalar tree_4_3_u03_r19_network.node[27].content_store 	p_hit[27] 	0.1680085441998
scalar tree_4_3_u03_r19_network.node[27].content_store 	hits[27] 	2045
scalar tree_4_3_u03_r19_network.node[27].content_store 	misses[27] 	10127
scalar tree_4_3_u03_r19_network.node[27].content_store 	decision_yes[27] 	10126
scalar tree_4_3_u03_r19_network.node[27].content_store 	decision_no[27] 	0
scalar tree_4_3_u03_r19_network.node[27].content_store 	decision_ratio[27] 	1
scalar tree_4_3_u03_r19_network.node[28].core_layer 	interests[28] 	12084
scalar tree_4_3_u03_r19_network.node[28].core_layer 	data[28] 	10254
scalar tree_4_3_u03_r19_network.node[28].content_store 	p_hit[28] 	0.15135716650116
scalar tree_4_3_u03_r19_network.node[28].content_store 	hits[28] 	1829
scalar tree_4_3_u03_r19_network.node[28].content_store 	misses[28] 	10255
scalar tree_4_3_u03_r19_network.node[28].content_store 	decision_yes[28] 	10254
scalar tree_4_3_u03_r19_network.node[28].content_store 	decision_no[28] 	0
scalar tree_4_3_u03_r19_network.node[28].content_store 	decision_ratio[28] 	1
scalar tree_4_3_u03_r19_network.node[29].core_layer 	interests[29] 	12051
scalar tree_4_3_u03_r19_network.node[29].core_layer 	data[29] 	10172
scalar tree_4_3_u03_r19_network.node[29].content_store 	p_hit[29] 	0.15575470915277
scalar tree_4_3_u03_r19_network.node[29].content_store 	hits[29] 	1877
scalar tree_4_3_u03_r19_network.node[29].content_store 	misses[29] 	10174
scalar tree_4_3_u03_r19_network.node[29].content_store 	decision_yes[29] 	10172
scalar tree_4_3_u03_r19_network.node[29].content_store 	decision_no[29] 	0
scalar tree_4_3_u03_r19_network.node[29].content_store 	decision_ratio[29] 	1
scalar tree_4_3_u03_r19_network.node[30].core_layer 	interests[30] 	12033
scalar tree_4_3_u03_r19_network.node[30].core_layer 	data[30] 	10094
scalar tree_4_3_u03_r19_network.node[30].content_store 	p_hit[30] 	0.16105709299427
scalar tree_4_3_u03_r19_network.node[30].content_store 	hits[30] 	1938
scalar tree_4_3_u03_r19_network.node[30].content_store 	misses[30] 	10095
scalar tree_4_3_u03_r19_network.node[30].content_store 	decision_yes[30] 	10094
scalar tree_4_3_u03_r19_network.node[30].content_store 	decision_no[30] 	0
scalar tree_4_3_u03_r19_network.node[30].content_store 	decision_ratio[30] 	1
scalar tree_4_3_u03_r19_network.node[31].core_layer 	interests[31] 	11876
scalar tree_4_3_u03_r19_network.node[31].core_layer 	data[31] 	10037
scalar tree_4_3_u03_r19_network.node[31].content_store 	p_hit[31] 	0.15485011788481
scalar tree_4_3_u03_r19_network.node[31].content_store 	hits[31] 	1839
scalar tree_4_3_u03_r19_network.node[31].content_store 	misses[31] 	10037
scalar tree_4_3_u03_r19_network.node[31].content_store 	decision_yes[31] 	10037
scalar tree_4_3_u03_r19_network.node[31].content_store 	decision_no[31] 	0
scalar tree_4_3_u03_r19_network.node[31].content_store 	decision_ratio[31] 	1
scalar tree_4_3_u03_r19_network.node[32].core_layer 	interests[32] 	11936
scalar tree_4_3_u03_r19_network.node[32].core_layer 	data[32] 	10069
scalar tree_4_3_u03_r19_network.node[32].content_store 	p_hit[32] 	0.15633378016086
scalar tree_4_3_u03_r19_network.node[32].content_store 	hits[32] 	1866
scalar tree_4_3_u03_r19_network.node[32].content_store 	misses[32] 	10070
scalar tree_4_3_u03_r19_network.node[32].content_store 	decision_yes[32] 	10069
scalar tree_4_3_u03_r19_network.node[32].content_store 	decision_no[32] 	0
scalar tree_4_3_u03_r19_network.node[32].content_store 	decision_ratio[32] 	1
scalar tree_4_3_u03_r19_network.node[33].core_layer 	interests[33] 	11971
scalar tree_4_3_u03_r19_network.node[33].core_layer 	data[33] 	10074
scalar tree_4_3_u03_r19_network.node[33].content_store 	p_hit[33] 	0.15846629354273
scalar tree_4_3_u03_r19_network.node[33].content_store 	hits[33] 	1897
scalar tree_4_3_u03_r19_network.node[33].content_store 	misses[33] 	10074
scalar tree_4_3_u03_r19_network.node[33].content_store 	decision_yes[33] 	10074
scalar tree_4_3_u03_r19_network.node[33].content_store 	decision_no[33] 	0
scalar tree_4_3_u03_r19_network.node[33].content_store 	decision_ratio[33] 	1
scalar tree_4_3_u03_r19_network.node[34].core_layer 	interests[34] 	12129
scalar tree_4_3_u03_r19_network.node[34].core_layer 	data[34] 	10250
scalar tree_4_3_u03_r19_network.node[34].content_store 	p_hit[34] 	0.15491796520735
scalar tree_4_3_u03_r19_network.node[34].content_store 	hits[34] 	1879
scalar tree_4_3_u03_r19_network.node[34].content_store 	misses[34] 	10250
scalar tree_4_3_u03_r19_network.node[34].content_store 	decision_yes[34] 	10250
scalar tree_4_3_u03_r19_network.node[34].content_store 	decision_no[34] 	0
scalar tree_4_3_u03_r19_network.node[34].content_store 	decision_ratio[34] 	1
scalar tree_4_3_u03_r19_network.node[35].core_layer 	interests[35] 	12099
scalar tree_4_3_u03_r19_network.node[35].core_layer 	data[35] 	10245
scalar tree_4_3_u03_r19_network.node[35].content_store 	p_hit[35] 	0.15315315315315
scalar tree_4_3_u03_r19_network.node[35].content_store 	hits[35] 	1853
scalar tree_4_3_u03_r19_network.node[35].content_store 	misses[35] 	10246
scalar tree_4_3_u03_r19_network.node[35].content_store 	decision_yes[35] 	10245
scalar tree_4_3_u03_r19_network.node[35].content_store 	decision_no[35] 	0
scalar tree_4_3_u03_r19_network.node[35].content_store 	decision_ratio[35] 	1
scalar tree_4_3_u03_r19_network.node[36].core_layer 	interests[36] 	12003
scalar tree_4_3_u03_r19_network.node[36].core_layer 	data[36] 	10104
scalar tree_4_3_u03_r19_network.node[36].content_store 	p_hit[36] 	0.15804382237774
scalar tree_4_3_u03_r19_network.node[36].content_store 	hits[36] 	1897
scalar tree_4_3_u03_r19_network.node[36].content_store 	misses[36] 	10106
scalar tree_4_3_u03_r19_network.node[36].content_store 	decision_yes[36] 	10104
scalar tree_4_3_u03_r19_network.node[36].content_store 	decision_no[36] 	0
scalar tree_4_3_u03_r19_network.node[36].content_store 	decision_ratio[36] 	1
scalar tree_4_3_u03_r19_network.node[37].core_layer 	interests[37] 	11850
scalar tree_4_3_u03_r19_network.node[37].core_layer 	data[37] 	10079
scalar tree_4_3_u03_r19_network.node[37].content_store 	p_hit[37] 	0.14936708860759
scalar tree_4_3_u03_r19_network.node[37].content_store 	hits[37] 	1770
scalar tree_4_3_u03_r19_network.node[37].content_store 	misses[37] 	10080
scalar tree_4_3_u03_r19_network.node[37].content_store 	decision_yes[37] 	10079
scalar tree_4_3_u03_r19_network.node[37].content_store 	decision_no[37] 	0
scalar tree_4_3_u03_r19_network.node[37].content_store 	decision_ratio[37] 	1
scalar tree_4_3_u03_r19_network.node[38].core_layer 	interests[38] 	11960
scalar tree_4_3_u03_r19_network.node[38].core_layer 	data[38] 	10162
scalar tree_4_3_u03_r19_network.node[38].content_store 	p_hit[38] 	0.15033444816054
scalar tree_4_3_u03_r19_network.node[38].content_store 	hits[38] 	1798
scalar tree_4_3_u03_r19_network.node[38].content_store 	misses[38] 	10162
scalar tree_4_3_u03_r19_network.node[38].content_store 	decision_yes[38] 	10162
scalar tree_4_3_u03_r19_network.node[38].content_store 	decision_no[38] 	0
scalar tree_4_3_u03_r19_network.node[38].content_store 	decision_ratio[38] 	1
scalar tree_4_3_u03_r19_network.node[39].core_layer 	interests[39] 	12041
scalar tree_4_3_u03_r19_network.node[39].core_layer 	data[39] 	10168
scalar tree_4_3_u03_r19_network.node[39].content_store 	p_hit[39] 	0.15555186446308
scalar tree_4_3_u03_r19_network.node[39].content_store 	hits[39] 	1873
scalar tree_4_3_u03_r19_network.node[39].content_store 	misses[39] 	10168
scalar tree_4_3_u03_r19_network.node[39].content_store 	decision_yes[39] 	10168
scalar tree_4_3_u03_r19_network.node[39].content_store 	decision_no[39] 	0
scalar tree_4_3_u03_r19_network.node[39].content_store 	decision_ratio[39] 	1
scalar tree_4_3_u03_r19_network.client[13] 	hdistance[13] 	3.3653959935762
scalar tree_4_3_u03_r19_network.client[13] 	downloads[13] 	11831
scalar tree_4_3_u03_r19_network.client[13] 	avg_time[13] 	0.005048035641
scalar tree_4_3_u03_r19_network.client[14] 	hdistance[14] 	3.3725490196078
scalar tree_4_3_u03_r19_network.client[14] 	downloads[14] 	11730
scalar tree_4_3_u03_r19_network.client[14] 	avg_time[14] 	0.005058285942
scalar tree_4_3_u03_r19_network.client[15] 	hdistance[15] 	3.3558528428094
scalar tree_4_3_u03_r19_network.client[15] 	downloads[15] 	11960
scalar tree_4_3_u03_r19_network.client[15] 	avg_time[15] 	0.005033200983
scalar tree_4_3_u03_r19_network.client[16] 	hdistance[16] 	3.3836436170213
scalar tree_4_3_u03_r19_network.client[16] 	downloads[16] 	12032
scalar tree_4_3_u03_r19_network.client[16] 	avg_time[16] 	0.005074589827
scalar tree_4_3_u03_r19_network.client[17] 	hdistance[17] 	3.3858134416794
scalar tree_4_3_u03_r19_network.client[17] 	downloads[17] 	11814
scalar tree_4_3_u03_r19_network.client[17] 	avg_time[17] 	0.005078452588
scalar tree_4_3_u03_r19_network.client[18] 	hdistance[18] 	3.3756993736952
scalar tree_4_3_u03_r19_network.client[18] 	downloads[18] 	11975
scalar tree_4_3_u03_r19_network.client[18] 	avg_time[18] 	0.005063069275
scalar tree_4_3_u03_r19_network.client[19] 	hdistance[19] 	3.35700066357
scalar tree_4_3_u03_r19_network.client[19] 	downloads[19] 	12056
scalar tree_4_3_u03_r19_network.client[19] 	avg_time[19] 	0.00503505661
scalar tree_4_3_u03_r19_network.client[20] 	hdistance[20] 	3.4034468263976
scalar tree_4_3_u03_r19_network.client[20] 	downloads[20] 	11895
scalar tree_4_3_u03_r19_network.client[20] 	avg_time[20] 	0.005104846626
scalar tree_4_3_u03_r19_network.client[21] 	hdistance[21] 	3.3872326368817
scalar tree_4_3_u03_r19_network.client[21] 	downloads[21] 	12109
scalar tree_4_3_u03_r19_network.client[21] 	avg_time[21] 	0.005080981186
scalar tree_4_3_u03_r19_network.client[22] 	hdistance[22] 	3.384251036116
scalar tree_4_3_u03_r19_network.client[22] 	downloads[22] 	11823
scalar tree_4_3_u03_r19_network.client[22] 	avg_time[22] 	0.005076398379
scalar tree_4_3_u03_r19_network.client[23] 	hdistance[23] 	3.3620388106938
scalar tree_4_3_u03_r19_network.client[23] 	downloads[23] 	12007
scalar tree_4_3_u03_r19_network.client[23] 	avg_time[23] 	0.005042792826
scalar tree_4_3_u03_r19_network.client[24] 	hdistance[24] 	3.3776129467296
scalar tree_4_3_u03_r19_network.client[24] 	downloads[24] 	11864
scalar tree_4_3_u03_r19_network.client[24] 	avg_time[24] 	0.005066218702
scalar tree_4_3_u03_r19_network.client[25] 	hdistance[25] 	3.3761498301152
scalar tree_4_3_u03_r19_network.client[25] 	downloads[25] 	12067
scalar tree_4_3_u03_r19_network.client[25] 	avg_time[25] 	0.005064221726
scalar tree_4_3_u03_r19_network.client[26] 	hdistance[26] 	3.3811547113222
scalar tree_4_3_u03_r19_network.client[26] 	downloads[26] 	12003
scalar tree_4_3_u03_r19_network.client[26] 	avg_time[26] 	0.005071528772
scalar tree_4_3_u03_r19_network.client[27] 	hdistance[27] 	3.327910607181
scalar tree_4_3_u03_r19_network.client[27] 	downloads[27] 	12171
scalar tree_4_3_u03_r19_network.client[27] 	avg_time[27] 	0.00499160257
scalar tree_4_3_u03_r19_network.client[28] 	hdistance[28] 	3.3945212281718
scalar tree_4_3_u03_r19_network.client[28] 	downloads[28] 	12083
scalar tree_4_3_u03_r19_network.client[28] 	avg_time[28] 	0.005091057108
scalar tree_4_3_u03_r19_network.client[29] 	hdistance[29] 	3.3768777491908
scalar tree_4_3_u03_r19_network.client[29] 	downloads[29] 	12049
scalar tree_4_3_u03_r19_network.client[29] 	avg_time[29] 	0.005065233252
scalar tree_4_3_u03_r19_network.client[30] 	hdistance[30] 	3.3557180851064
scalar tree_4_3_u03_r19_network.client[30] 	downloads[30] 	12032
scalar tree_4_3_u03_r19_network.client[30] 	avg_time[30] 	0.005033134992
scalar tree_4_3_u03_r19_network.client[31] 	hdistance[31] 	3.3805995284608
scalar tree_4_3_u03_r19_network.client[31] 	downloads[31] 	11876
scalar tree_4_3_u03_r19_network.client[31] 	avg_time[31] 	0.005070502584
scalar tree_4_3_u03_r19_network.client[32] 	hdistance[32] 	3.3746124842899
scalar tree_4_3_u03_r19_network.client[32] 	downloads[32] 	11935
scalar tree_4_3_u03_r19_network.client[32] 	avg_time[32] 	0.005061915782
scalar tree_4_3_u03_r19_network.client[33] 	hdistance[33] 	3.3661348258291
scalar tree_4_3_u03_r19_network.client[33] 	downloads[33] 	11971
scalar tree_4_3_u03_r19_network.client[33] 	avg_time[33] 	0.005049199205
scalar tree_4_3_u03_r19_network.client[34] 	hdistance[34] 	3.3803281391706
scalar tree_4_3_u03_r19_network.client[34] 	downloads[34] 	12129
scalar tree_4_3_u03_r19_network.client[34] 	avg_time[34] 	0.00506999589
scalar tree_4_3_u03_r19_network.client[35] 	hdistance[35] 	3.387336749876
scalar tree_4_3_u03_r19_network.client[35] 	downloads[35] 	12098
scalar tree_4_3_u03_r19_network.client[35] 	avg_time[35] 	0.005080747107
scalar tree_4_3_u03_r19_network.client[36] 	hdistance[36] 	3.3677193567203
scalar tree_4_3_u03_r19_network.client[36] 	downloads[36] 	12001
scalar tree_4_3_u03_r19_network.client[36] 	avg_time[36] 	0.005051641619
scalar tree_4_3_u03_r19_network.client[37] 	hdistance[37] 	3.4024812220441
scalar tree_4_3_u03_r19_network.client[37] 	downloads[37] 	11849
scalar tree_4_3_u03_r19_network.client[37] 	avg_time[37] 	0.005103258576
scalar tree_4_3_u03_r19_network.client[38] 	hdistance[38] 	3.3986622073579
scalar tree_4_3_u03_r19_network.client[38] 	downloads[38] 	11960
scalar tree_4_3_u03_r19_network.client[38] 	avg_time[38] 	0.0050978946
scalar tree_4_3_u03_r19_network.client[39] 	hdistance[39] 	3.3777925421477
scalar tree_4_3_u03_r19_network.client[39] 	downloads[39] 	12041
scalar tree_4_3_u03_r19_network.client[39] 	avg_time[39] 	0.005066413157
