version 2
run General-60-20160818-21:48:32-32642
attr a 0.9
attr cd lce
attr configname General
attr cr lru
attr datetime 20160818-21:48:32
attr experiment General
attr fsize 1
attr inifile hw5115/scenario_A/Edge.ini
attr iterationvars "$name=tree_4_3, $un=03, $rep=1, $scenario=Edge, $cd=lce, $cr=lru, $fsize=1, $a=0.9, $sl=spr, $ttl=1000, $variance=0.05"
attr iterationvars2 "$name=tree_4_3, $un=03, $rep=1, $scenario=Edge, $cd=lce, $cr=lru, $fsize=1, $a=0.9, $sl=spr, $ttl=1000, $variance=0.05, $repetition=0"
attr measurement "$name=tree_4_3, $un=03, $rep=1, $scenario=Edge, $cd=lce, $cr=lru, $fsize=1, $a=0.9, $sl=spr, $ttl=1000, $variance=0.05"
attr name tree_4_3
attr network networks.${name}_u${un}_r${rep}_network
attr processid 32642
attr rep 1
attr repetition 0
attr replication #0
attr resultdir results
attr runnumber 60
attr scenario Edge
attr seedset 1
attr sl spr
attr ttl 1000
attr un 03
attr variance 0.05

scalar . 	a 	0.9
scalar . 	fsize 	1
scalar . 	rep 	1
scalar . 	ttl 	1000
scalar . 	un 	03
scalar . 	variance 	0.05
scalar tree_4_3_u03_r1_network.content_distribution 	repo-0 	0
scalar tree_4_3_u03_r1_network.content_distribution 	client-0 	13
scalar tree_4_3_u03_r1_network.content_distribution 	client-1 	14
scalar tree_4_3_u03_r1_network.content_distribution 	client-2 	15
scalar tree_4_3_u03_r1_network.content_distribution 	client-3 	16
scalar tree_4_3_u03_r1_network.content_distribution 	client-4 	17
scalar tree_4_3_u03_r1_network.content_distribution 	client-5 	18
scalar tree_4_3_u03_r1_network.content_distribution 	client-6 	19
scalar tree_4_3_u03_r1_network.content_distribution 	client-7 	20
scalar tree_4_3_u03_r1_network.content_distribution 	client-8 	21
scalar tree_4_3_u03_r1_network.content_distribution 	client-9 	22
scalar tree_4_3_u03_r1_network.content_distribution 	client-10 	23
scalar tree_4_3_u03_r1_network.content_distribution 	client-11 	24
scalar tree_4_3_u03_r1_network.content_distribution 	client-12 	25
scalar tree_4_3_u03_r1_network.content_distribution 	client-13 	26
scalar tree_4_3_u03_r1_network.content_distribution 	client-14 	27
scalar tree_4_3_u03_r1_network.content_distribution 	client-15 	28
scalar tree_4_3_u03_r1_network.content_distribution 	client-16 	29
scalar tree_4_3_u03_r1_network.content_distribution 	client-17 	30
scalar tree_4_3_u03_r1_network.content_distribution 	client-18 	31
scalar tree_4_3_u03_r1_network.content_distribution 	client-19 	32
scalar tree_4_3_u03_r1_network.content_distribution 	client-20 	33
scalar tree_4_3_u03_r1_network.content_distribution 	client-21 	34
scalar tree_4_3_u03_r1_network.content_distribution 	client-22 	35
scalar tree_4_3_u03_r1_network.content_distribution 	client-23 	36
scalar tree_4_3_u03_r1_network.content_distribution 	client-24 	37
scalar tree_4_3_u03_r1_network.content_distribution 	client-25 	38
scalar tree_4_3_u03_r1_network.content_distribution 	client-26 	39
scalar tree_4_3_u03_r1_network.content_distribution 	repo-0_card 	100000
scalar tree_4_3_u03_r1_network.content_distribution 	repo-0_price 	0
scalar tree_4_3_u03_r1_network.statistics 	stabilization_time 	425.4
scalar tree_4_3_u03_r1_network.statistics 	p_hit 	0.10596551214884
scalar tree_4_3_u03_r1_network.statistics 	interests 	28542.9
scalar tree_4_3_u03_r1_network.statistics 	data 	20454
scalar tree_4_3_u03_r1_network.statistics 	hdistance 	3.3720170977303
scalar tree_4_3_u03_r1_network.statistics 	avg_time 	0.005057695539
scalar tree_4_3_u03_r1_network.statistics 	downloads 	323531
scalar tree_4_3_u03_r1_network.statistics 	total_cost 	0
scalar tree_4_3_u03_r1_network.statistics 	total_replicas 	100000
scalar tree_4_3_u03_r1_network.statistics 	inner_hit 	0.15710704692904
scalar tree_4_3_u03_r1_network.node[0].core_layer 	interests[0] 	272702
scalar tree_4_3_u03_r1_network.node[0].core_layer 	repo_load[0] 	272702
scalar tree_4_3_u03_r1_network.node[0].core_layer 	data[0] 	0
scalar tree_4_3_u03_r1_network.node[0].core_layer 	repo_int[0] 	272702
scalar tree_4_3_u03_r1_network.node[0].content_store 	p_hit[0] 	0
scalar tree_4_3_u03_r1_network.node[0].content_store 	hits[0] 	0
scalar tree_4_3_u03_r1_network.node[0].content_store 	misses[0] 	272702
scalar tree_4_3_u03_r1_network.node[0].content_store 	decision_yes[0] 	0
scalar tree_4_3_u03_r1_network.node[0].content_store 	decision_no[0] 	272702
scalar tree_4_3_u03_r1_network.node[0].content_store 	decision_ratio[0] 	0
scalar tree_4_3_u03_r1_network.node[1].core_layer 	interests[1] 	91276
scalar tree_4_3_u03_r1_network.node[1].core_layer 	data[1] 	91270
scalar tree_4_3_u03_r1_network.node[1].content_store 	p_hit[1] 	0
scalar tree_4_3_u03_r1_network.node[1].content_store 	hits[1] 	0
scalar tree_4_3_u03_r1_network.node[1].content_store 	misses[1] 	91276
scalar tree_4_3_u03_r1_network.node[1].content_store 	decision_yes[1] 	0
scalar tree_4_3_u03_r1_network.node[1].content_store 	decision_no[1] 	91270
scalar tree_4_3_u03_r1_network.node[1].content_store 	decision_ratio[1] 	0
scalar tree_4_3_u03_r1_network.node[2].core_layer 	interests[2] 	90693
scalar tree_4_3_u03_r1_network.node[2].core_layer 	data[2] 	90686
scalar tree_4_3_u03_r1_network.node[2].content_store 	p_hit[2] 	0
scalar tree_4_3_u03_r1_network.node[2].content_store 	hits[2] 	0
scalar tree_4_3_u03_r1_network.node[2].content_store 	misses[2] 	90693
scalar tree_4_3_u03_r1_network.node[2].content_store 	decision_yes[2] 	0
scalar tree_4_3_u03_r1_network.node[2].content_store 	decision_no[2] 	90686
scalar tree_4_3_u03_r1_network.node[2].content_store 	decision_ratio[2] 	0
scalar tree_4_3_u03_r1_network.node[3].core_layer 	interests[3] 	90753
scalar tree_4_3_u03_r1_network.node[3].core_layer 	data[3] 	90745
scalar tree_4_3_u03_r1_network.node[3].content_store 	p_hit[3] 	0
scalar tree_4_3_u03_r1_network.node[3].content_store 	hits[3] 	0
scalar tree_4_3_u03_r1_network.node[3].content_store 	misses[3] 	90753
scalar tree_4_3_u03_r1_network.node[3].content_store 	decision_yes[3] 	0
scalar tree_4_3_u03_r1_network.node[3].content_store 	decision_no[3] 	90745
scalar tree_4_3_u03_r1_network.node[3].content_store 	decision_ratio[3] 	0
scalar tree_4_3_u03_r1_network.node[4].core_layer 	interests[4] 	40703
scalar tree_4_3_u03_r1_network.node[4].core_layer 	data[4] 	40699
scalar tree_4_3_u03_r1_network.node[4].content_store 	p_hit[4] 	0
scalar tree_4_3_u03_r1_network.node[4].content_store 	hits[4] 	0
scalar tree_4_3_u03_r1_network.node[4].content_store 	misses[4] 	40703
scalar tree_4_3_u03_r1_network.node[4].content_store 	decision_yes[4] 	0
scalar tree_4_3_u03_r1_network.node[4].content_store 	decision_no[4] 	40699
scalar tree_4_3_u03_r1_network.node[4].content_store 	decision_ratio[4] 	0
scalar tree_4_3_u03_r1_network.node[5].core_layer 	interests[5] 	20125
scalar tree_4_3_u03_r1_network.node[5].core_layer 	data[5] 	20124
scalar tree_4_3_u03_r1_network.node[5].content_store 	p_hit[5] 	0
scalar tree_4_3_u03_r1_network.node[5].content_store 	hits[5] 	0
scalar tree_4_3_u03_r1_network.node[5].content_store 	misses[5] 	20125
scalar tree_4_3_u03_r1_network.node[5].content_store 	decision_yes[5] 	0
scalar tree_4_3_u03_r1_network.node[5].content_store 	decision_no[5] 	20124
scalar tree_4_3_u03_r1_network.node[5].content_store 	decision_ratio[5] 	0
scalar tree_4_3_u03_r1_network.node[6].core_layer 	interests[6] 	30454
scalar tree_4_3_u03_r1_network.node[6].core_layer 	data[6] 	30452
scalar tree_4_3_u03_r1_network.node[6].content_store 	p_hit[6] 	0
scalar tree_4_3_u03_r1_network.node[6].content_store 	hits[6] 	0
scalar tree_4_3_u03_r1_network.node[6].content_store 	misses[6] 	30454
scalar tree_4_3_u03_r1_network.node[6].content_store 	decision_yes[6] 	0
scalar tree_4_3_u03_r1_network.node[6].content_store 	decision_no[6] 	30452
scalar tree_4_3_u03_r1_network.node[6].content_store 	decision_ratio[6] 	0
scalar tree_4_3_u03_r1_network.node[7].core_layer 	interests[7] 	40189
scalar tree_4_3_u03_r1_network.node[7].core_layer 	data[7] 	40185
scalar tree_4_3_u03_r1_network.node[7].content_store 	p_hit[7] 	0
scalar tree_4_3_u03_r1_network.node[7].content_store 	hits[7] 	0
scalar tree_4_3_u03_r1_network.node[7].content_store 	misses[7] 	40189
scalar tree_4_3_u03_r1_network.node[7].content_store 	decision_yes[7] 	0
scalar tree_4_3_u03_r1_network.node[7].content_store 	decision_no[7] 	40185
scalar tree_4_3_u03_r1_network.node[7].content_store 	decision_ratio[7] 	0
scalar tree_4_3_u03_r1_network.node[8].core_layer 	interests[8] 	30264
scalar tree_4_3_u03_r1_network.node[8].core_layer 	data[8] 	30262
scalar tree_4_3_u03_r1_network.node[8].content_store 	p_hit[8] 	0
scalar tree_4_3_u03_r1_network.node[8].content_store 	hits[8] 	0
scalar tree_4_3_u03_r1_network.node[8].content_store 	misses[8] 	30264
scalar tree_4_3_u03_r1_network.node[8].content_store 	decision_yes[8] 	0
scalar tree_4_3_u03_r1_network.node[8].content_store 	decision_no[8] 	30262
scalar tree_4_3_u03_r1_network.node[8].content_store 	decision_ratio[8] 	0
scalar tree_4_3_u03_r1_network.node[9].core_layer 	interests[9] 	20248
scalar tree_4_3_u03_r1_network.node[9].core_layer 	data[9] 	20247
scalar tree_4_3_u03_r1_network.node[9].content_store 	p_hit[9] 	0
scalar tree_4_3_u03_r1_network.node[9].content_store 	hits[9] 	0
scalar tree_4_3_u03_r1_network.node[9].content_store 	misses[9] 	20248
scalar tree_4_3_u03_r1_network.node[9].content_store 	decision_yes[9] 	0
scalar tree_4_3_u03_r1_network.node[9].content_store 	decision_no[9] 	20247
scalar tree_4_3_u03_r1_network.node[9].content_store 	decision_ratio[9] 	0
scalar tree_4_3_u03_r1_network.node[10].core_layer 	interests[10] 	30149
scalar tree_4_3_u03_r1_network.node[10].core_layer 	data[10] 	30147
scalar tree_4_3_u03_r1_network.node[10].content_store 	p_hit[10] 	0
scalar tree_4_3_u03_r1_network.node[10].content_store 	hits[10] 	0
scalar tree_4_3_u03_r1_network.node[10].content_store 	misses[10] 	30149
scalar tree_4_3_u03_r1_network.node[10].content_store 	decision_yes[10] 	0
scalar tree_4_3_u03_r1_network.node[10].content_store 	decision_no[10] 	30147
scalar tree_4_3_u03_r1_network.node[10].content_store 	decision_ratio[10] 	0
scalar tree_4_3_u03_r1_network.node[11].core_layer 	interests[11] 	30177
scalar tree_4_3_u03_r1_network.node[11].core_layer 	data[11] 	30175
scalar tree_4_3_u03_r1_network.node[11].content_store 	p_hit[11] 	0
scalar tree_4_3_u03_r1_network.node[11].content_store 	hits[11] 	0
scalar tree_4_3_u03_r1_network.node[11].content_store 	misses[11] 	30177
scalar tree_4_3_u03_r1_network.node[11].content_store 	decision_yes[11] 	0
scalar tree_4_3_u03_r1_network.node[11].content_store 	decision_no[11] 	30175
scalar tree_4_3_u03_r1_network.node[11].content_store 	decision_ratio[11] 	0
scalar tree_4_3_u03_r1_network.node[12].core_layer 	interests[12] 	30432
scalar tree_4_3_u03_r1_network.node[12].core_layer 	data[12] 	30430
scalar tree_4_3_u03_r1_network.node[12].content_store 	p_hit[12] 	0
scalar tree_4_3_u03_r1_network.node[12].content_store 	hits[12] 	0
scalar tree_4_3_u03_r1_network.node[12].content_store 	misses[12] 	30432
scalar tree_4_3_u03_r1_network.node[12].content_store 	decision_yes[12] 	0
scalar tree_4_3_u03_r1_network.node[12].content_store 	decision_no[12] 	30430
scalar tree_4_3_u03_r1_network.node[12].content_store 	decision_ratio[12] 	0
scalar tree_4_3_u03_r1_network.node[13].core_layer 	interests[13] 	12080
scalar tree_4_3_u03_r1_network.node[13].core_layer 	data[13] 	10078
scalar tree_4_3_u03_r1_network.node[13].content_store 	p_hit[13] 	0.16556291390728
scalar tree_4_3_u03_r1_network.node[13].content_store 	hits[13] 	2000
scalar tree_4_3_u03_r1_network.node[13].content_store 	misses[13] 	10080
scalar tree_4_3_u03_r1_network.node[13].content_store 	decision_yes[13] 	10078
scalar tree_4_3_u03_r1_network.node[13].content_store 	decision_no[13] 	0
scalar tree_4_3_u03_r1_network.node[13].content_store 	decision_ratio[13] 	1
scalar tree_4_3_u03_r1_network.node[14].core_layer 	interests[14] 	12055
scalar tree_4_3_u03_r1_network.node[14].core_layer 	data[14] 	10200
scalar tree_4_3_u03_r1_network.node[14].content_store 	p_hit[14] 	0.15387805889672
scalar tree_4_3_u03_r1_network.node[14].content_store 	hits[14] 	1855
scalar tree_4_3_u03_r1_network.node[14].content_store 	misses[14] 	10200
scalar tree_4_3_u03_r1_network.node[14].content_store 	decision_yes[14] 	10200
scalar tree_4_3_u03_r1_network.node[14].content_store 	decision_no[14] 	0
scalar tree_4_3_u03_r1_network.node[14].content_store 	decision_ratio[14] 	1
scalar tree_4_3_u03_r1_network.node[15].core_layer 	interests[15] 	12064
scalar tree_4_3_u03_r1_network.node[15].core_layer 	data[15] 	10175
scalar tree_4_3_u03_r1_network.node[15].content_store 	p_hit[15] 	0.15658156498674
scalar tree_4_3_u03_r1_network.node[15].content_store 	hits[15] 	1889
scalar tree_4_3_u03_r1_network.node[15].content_store 	misses[15] 	10175
scalar tree_4_3_u03_r1_network.node[15].content_store 	decision_yes[15] 	10175
scalar tree_4_3_u03_r1_network.node[15].content_store 	decision_no[15] 	0
scalar tree_4_3_u03_r1_network.node[15].content_store 	decision_ratio[15] 	1
scalar tree_4_3_u03_r1_network.node[16].core_layer 	interests[16] 	12155
scalar tree_4_3_u03_r1_network.node[16].core_layer 	data[16] 	10250
scalar tree_4_3_u03_r1_network.node[16].content_store 	p_hit[16] 	0.15664335664336
scalar tree_4_3_u03_r1_network.node[16].content_store 	hits[16] 	1904
scalar tree_4_3_u03_r1_network.node[16].content_store 	misses[16] 	10251
scalar tree_4_3_u03_r1_network.node[16].content_store 	decision_yes[16] 	10250
scalar tree_4_3_u03_r1_network.node[16].content_store 	decision_no[16] 	0
scalar tree_4_3_u03_r1_network.node[16].content_store 	decision_ratio[16] 	1
scalar tree_4_3_u03_r1_network.node[17].core_layer 	interests[17] 	12076
scalar tree_4_3_u03_r1_network.node[17].core_layer 	data[17] 	10080
scalar tree_4_3_u03_r1_network.node[17].content_store 	p_hit[17] 	0.16512090096058
scalar tree_4_3_u03_r1_network.node[17].content_store 	hits[17] 	1994
scalar tree_4_3_u03_r1_network.node[17].content_store 	misses[17] 	10082
scalar tree_4_3_u03_r1_network.node[17].content_store 	decision_yes[17] 	10080
scalar tree_4_3_u03_r1_network.node[17].content_store 	decision_no[17] 	0
scalar tree_4_3_u03_r1_network.node[17].content_store 	decision_ratio[17] 	1
scalar tree_4_3_u03_r1_network.node[18].core_layer 	interests[18] 	11832
scalar tree_4_3_u03_r1_network.node[18].core_layer 	data[18] 	10044
scalar tree_4_3_u03_r1_network.node[18].content_store 	p_hit[18] 	0.15103110209601
scalar tree_4_3_u03_r1_network.node[18].content_store 	hits[18] 	1787
scalar tree_4_3_u03_r1_network.node[18].content_store 	misses[18] 	10045
scalar tree_4_3_u03_r1_network.node[18].content_store 	decision_yes[18] 	10044
scalar tree_4_3_u03_r1_network.node[18].content_store 	decision_no[18] 	0
scalar tree_4_3_u03_r1_network.node[18].content_store 	decision_ratio[18] 	1
scalar tree_4_3_u03_r1_network.node[19].core_layer 	interests[19] 	12059
scalar tree_4_3_u03_r1_network.node[19].core_layer 	data[19] 	10193
scalar tree_4_3_u03_r1_network.node[19].content_store 	p_hit[19] 	0.15473919893855
scalar tree_4_3_u03_r1_network.node[19].content_store 	hits[19] 	1866
scalar tree_4_3_u03_r1_network.node[19].content_store 	misses[19] 	10193
scalar tree_4_3_u03_r1_network.node[19].content_store 	decision_yes[19] 	10193
scalar tree_4_3_u03_r1_network.node[19].content_store 	decision_no[19] 	0
scalar tree_4_3_u03_r1_network.node[19].content_store 	decision_ratio[19] 	1
scalar tree_4_3_u03_r1_network.node[20].core_layer 	interests[20] 	12009
scalar tree_4_3_u03_r1_network.node[20].core_layer 	data[20] 	10158
scalar tree_4_3_u03_r1_network.node[20].content_store 	p_hit[20] 	0.1541343992006
scalar tree_4_3_u03_r1_network.node[20].content_store 	hits[20] 	1851
scalar tree_4_3_u03_r1_network.node[20].content_store 	misses[20] 	10158
scalar tree_4_3_u03_r1_network.node[20].content_store 	decision_yes[20] 	10158
scalar tree_4_3_u03_r1_network.node[20].content_store 	decision_no[20] 	0
scalar tree_4_3_u03_r1_network.node[20].content_store 	decision_ratio[20] 	1
scalar tree_4_3_u03_r1_network.node[21].core_layer 	interests[21] 	11867
scalar tree_4_3_u03_r1_network.node[21].core_layer 	data[21] 	10103
scalar tree_4_3_u03_r1_network.node[21].content_store 	p_hit[21] 	0.14856324260554
scalar tree_4_3_u03_r1_network.node[21].content_store 	hits[21] 	1763
scalar tree_4_3_u03_r1_network.node[21].content_store 	misses[21] 	10104
scalar tree_4_3_u03_r1_network.node[21].content_store 	decision_yes[21] 	10103
scalar tree_4_3_u03_r1_network.node[21].content_store 	decision_no[21] 	0
scalar tree_4_3_u03_r1_network.node[21].content_store 	decision_ratio[21] 	1
scalar tree_4_3_u03_r1_network.node[22].core_layer 	interests[22] 	11925
scalar tree_4_3_u03_r1_network.node[22].core_layer 	data[22] 	10015
scalar tree_4_3_u03_r1_network.node[22].content_store 	p_hit[22] 	0.16008385744235
scalar tree_4_3_u03_r1_network.node[22].content_store 	hits[22] 	1909
scalar tree_4_3_u03_r1_network.node[22].content_store 	misses[22] 	10016
scalar tree_4_3_u03_r1_network.node[22].content_store 	decision_yes[22] 	10015
scalar tree_4_3_u03_r1_network.node[22].content_store 	decision_no[22] 	0
scalar tree_4_3_u03_r1_network.node[22].content_store 	decision_ratio[22] 	1
scalar tree_4_3_u03_r1_network.node[23].core_layer 	interests[23] 	11928
scalar tree_4_3_u03_r1_network.node[23].core_layer 	data[23] 	10100
scalar tree_4_3_u03_r1_network.node[23].content_store 	p_hit[23] 	0.15325285043595
scalar tree_4_3_u03_r1_network.node[23].content_store 	hits[23] 	1828
scalar tree_4_3_u03_r1_network.node[23].content_store 	misses[23] 	10100
scalar tree_4_3_u03_r1_network.node[23].content_store 	decision_yes[23] 	10100
scalar tree_4_3_u03_r1_network.node[23].content_store 	decision_no[23] 	0
scalar tree_4_3_u03_r1_network.node[23].content_store 	decision_ratio[23] 	1
scalar tree_4_3_u03_r1_network.node[24].core_layer 	interests[24] 	11936
scalar tree_4_3_u03_r1_network.node[24].core_layer 	data[24] 	10065
scalar tree_4_3_u03_r1_network.node[24].content_store 	p_hit[24] 	0.15675268096515
scalar tree_4_3_u03_r1_network.node[24].content_store 	hits[24] 	1871
scalar tree_4_3_u03_r1_network.node[24].content_store 	misses[24] 	10065
scalar tree_4_3_u03_r1_network.node[24].content_store 	decision_yes[24] 	10065
scalar tree_4_3_u03_r1_network.node[24].content_store 	decision_no[24] 	0
scalar tree_4_3_u03_r1_network.node[24].content_store 	decision_ratio[24] 	1
scalar tree_4_3_u03_r1_network.node[25].core_layer 	interests[25] 	11809
scalar tree_4_3_u03_r1_network.node[25].core_layer 	data[25] 	9957
scalar tree_4_3_u03_r1_network.node[25].content_store 	p_hit[25] 	0.15682953679397
scalar tree_4_3_u03_r1_network.node[25].content_store 	hits[25] 	1852
scalar tree_4_3_u03_r1_network.node[25].content_store 	misses[25] 	9957
scalar tree_4_3_u03_r1_network.node[25].content_store 	decision_yes[25] 	9957
scalar tree_4_3_u03_r1_network.node[25].content_store 	decision_no[25] 	0
scalar tree_4_3_u03_r1_network.node[25].content_store 	decision_ratio[25] 	1
scalar tree_4_3_u03_r1_network.node[26].core_layer 	interests[26] 	12224
scalar tree_4_3_u03_r1_network.node[26].core_layer 	data[26] 	10334
scalar tree_4_3_u03_r1_network.node[26].content_store 	p_hit[26] 	0.15469568062827
scalar tree_4_3_u03_r1_network.node[26].content_store 	hits[26] 	1891
scalar tree_4_3_u03_r1_network.node[26].content_store 	misses[26] 	10333
scalar tree_4_3_u03_r1_network.node[26].content_store 	decision_yes[26] 	10334
scalar tree_4_3_u03_r1_network.node[26].content_store 	decision_no[26] 	0
scalar tree_4_3_u03_r1_network.node[26].content_store 	decision_ratio[26] 	1
scalar tree_4_3_u03_r1_network.node[27].core_layer 	interests[27] 	11837
scalar tree_4_3_u03_r1_network.node[27].core_layer 	data[27] 	9974
scalar tree_4_3_u03_r1_network.node[27].content_store 	p_hit[27] 	0.15730337078652
scalar tree_4_3_u03_r1_network.node[27].content_store 	hits[27] 	1862
scalar tree_4_3_u03_r1_network.node[27].content_store 	misses[27] 	9975
scalar tree_4_3_u03_r1_network.node[27].content_store 	decision_yes[27] 	9974
scalar tree_4_3_u03_r1_network.node[27].content_store 	decision_no[27] 	0
scalar tree_4_3_u03_r1_network.node[27].content_store 	decision_ratio[27] 	1
scalar tree_4_3_u03_r1_network.node[28].core_layer 	interests[28] 	11841
scalar tree_4_3_u03_r1_network.node[28].core_layer 	data[28] 	10009
scalar tree_4_3_u03_r1_network.node[28].content_store 	p_hit[28] 	0.15471666244405
scalar tree_4_3_u03_r1_network.node[28].content_store 	hits[28] 	1832
scalar tree_4_3_u03_r1_network.node[28].content_store 	misses[28] 	10009
scalar tree_4_3_u03_r1_network.node[28].content_store 	decision_yes[28] 	10009
scalar tree_4_3_u03_r1_network.node[28].content_store 	decision_no[28] 	0
scalar tree_4_3_u03_r1_network.node[28].content_store 	decision_ratio[28] 	1
scalar tree_4_3_u03_r1_network.node[29].core_layer 	interests[29] 	12175
scalar tree_4_3_u03_r1_network.node[29].core_layer 	data[29] 	10344
scalar tree_4_3_u03_r1_network.node[29].content_store 	p_hit[29] 	0.15014373716632
scalar tree_4_3_u03_r1_network.node[29].content_store 	hits[29] 	1828
scalar tree_4_3_u03_r1_network.node[29].content_store 	misses[29] 	10347
scalar tree_4_3_u03_r1_network.node[29].content_store 	decision_yes[29] 	10344
scalar tree_4_3_u03_r1_network.node[29].content_store 	decision_no[29] 	0
scalar tree_4_3_u03_r1_network.node[29].content_store 	decision_ratio[29] 	1
scalar tree_4_3_u03_r1_network.node[30].core_layer 	interests[30] 	11850
scalar tree_4_3_u03_r1_network.node[30].core_layer 	data[30] 	9903
scalar tree_4_3_u03_r1_network.node[30].content_store 	p_hit[30] 	0.1642194092827
scalar tree_4_3_u03_r1_network.node[30].content_store 	hits[30] 	1946
scalar tree_4_3_u03_r1_network.node[30].content_store 	misses[30] 	9904
scalar tree_4_3_u03_r1_network.node[30].content_store 	decision_yes[30] 	9903
scalar tree_4_3_u03_r1_network.node[30].content_store 	decision_no[30] 	0
scalar tree_4_3_u03_r1_network.node[30].content_store 	decision_ratio[30] 	1
scalar tree_4_3_u03_r1_network.node[31].core_layer 	interests[31] 	12014
scalar tree_4_3_u03_r1_network.node[31].core_layer 	data[31] 	10170
scalar tree_4_3_u03_r1_network.node[31].content_store 	p_hit[31] 	0.15348759780256
scalar tree_4_3_u03_r1_network.node[31].content_store 	hits[31] 	1844
scalar tree_4_3_u03_r1_network.node[31].content_store 	misses[31] 	10170
scalar tree_4_3_u03_r1_network.node[31].content_store 	decision_yes[31] 	10170
scalar tree_4_3_u03_r1_network.node[31].content_store 	decision_no[31] 	0
scalar tree_4_3_u03_r1_network.node[31].content_store 	decision_ratio[31] 	1
scalar tree_4_3_u03_r1_network.node[32].core_layer 	interests[32] 	11855
scalar tree_4_3_u03_r1_network.node[32].core_layer 	data[32] 	9942
scalar tree_4_3_u03_r1_network.node[32].content_store 	p_hit[32] 	0.1612821594264
scalar tree_4_3_u03_r1_network.node[32].content_store 	hits[32] 	1912
scalar tree_4_3_u03_r1_network.node[32].content_store 	misses[32] 	9943
scalar tree_4_3_u03_r1_network.node[32].content_store 	decision_yes[32] 	9942
scalar tree_4_3_u03_r1_network.node[32].content_store 	decision_no[32] 	0
scalar tree_4_3_u03_r1_network.node[32].content_store 	decision_ratio[32] 	1
scalar tree_4_3_u03_r1_network.node[33].core_layer 	interests[33] 	11949
scalar tree_4_3_u03_r1_network.node[33].core_layer 	data[33] 	10036
scalar tree_4_3_u03_r1_network.node[33].content_store 	p_hit[33] 	0.1598460122186
scalar tree_4_3_u03_r1_network.node[33].content_store 	hits[33] 	1910
scalar tree_4_3_u03_r1_network.node[33].content_store 	misses[33] 	10039
scalar tree_4_3_u03_r1_network.node[33].content_store 	decision_yes[33] 	10036
scalar tree_4_3_u03_r1_network.node[33].content_store 	decision_no[33] 	0
scalar tree_4_3_u03_r1_network.node[33].content_store 	decision_ratio[33] 	1
scalar tree_4_3_u03_r1_network.node[34].core_layer 	interests[34] 	11950
scalar tree_4_3_u03_r1_network.node[34].core_layer 	data[34] 	10081
scalar tree_4_3_u03_r1_network.node[34].content_store 	p_hit[34] 	0.15623430962343
scalar tree_4_3_u03_r1_network.node[34].content_store 	hits[34] 	1867
scalar tree_4_3_u03_r1_network.node[34].content_store 	misses[34] 	10083
scalar tree_4_3_u03_r1_network.node[34].content_store 	decision_yes[34] 	10081
scalar tree_4_3_u03_r1_network.node[34].content_store 	decision_no[34] 	0
scalar tree_4_3_u03_r1_network.node[34].content_store 	decision_ratio[34] 	1
scalar tree_4_3_u03_r1_network.node[35].core_layer 	interests[35] 	11839
scalar tree_4_3_u03_r1_network.node[35].core_layer 	data[35] 	9962
scalar tree_4_3_u03_r1_network.node[35].content_store 	p_hit[35] 	0.15854379592871
scalar tree_4_3_u03_r1_network.node[35].content_store 	hits[35] 	1877
scalar tree_4_3_u03_r1_network.node[35].content_store 	misses[35] 	9962
scalar tree_4_3_u03_r1_network.node[35].content_store 	decision_yes[35] 	9962
scalar tree_4_3_u03_r1_network.node[35].content_store 	decision_no[35] 	0
scalar tree_4_3_u03_r1_network.node[35].content_store 	decision_ratio[35] 	1
scalar tree_4_3_u03_r1_network.node[36].core_layer 	interests[36] 	12090
scalar tree_4_3_u03_r1_network.node[36].core_layer 	data[36] 	10134
scalar tree_4_3_u03_r1_network.node[36].content_store 	p_hit[36] 	0.16170388751034
scalar tree_4_3_u03_r1_network.node[36].content_store 	hits[36] 	1955
scalar tree_4_3_u03_r1_network.node[36].content_store 	misses[36] 	10135
scalar tree_4_3_u03_r1_network.node[36].content_store 	decision_yes[36] 	10134
scalar tree_4_3_u03_r1_network.node[36].content_store 	decision_no[36] 	0
scalar tree_4_3_u03_r1_network.node[36].content_store 	decision_ratio[36] 	1
scalar tree_4_3_u03_r1_network.node[37].core_layer 	interests[37] 	11953
scalar tree_4_3_u03_r1_network.node[37].core_layer 	data[37] 	10061
scalar tree_4_3_u03_r1_network.node[37].content_store 	p_hit[37] 	0.1582866226052
scalar tree_4_3_u03_r1_network.node[37].content_store 	hits[37] 	1892
scalar tree_4_3_u03_r1_network.node[37].content_store 	misses[37] 	10061
scalar tree_4_3_u03_r1_network.node[37].content_store 	decision_yes[37] 	10061
scalar tree_4_3_u03_r1_network.node[37].content_store 	decision_no[37] 	0
scalar tree_4_3_u03_r1_network.node[37].content_store 	decision_ratio[37] 	1
scalar tree_4_3_u03_r1_network.node[38].core_layer 	interests[38] 	12093
scalar tree_4_3_u03_r1_network.node[38].core_layer 	data[38] 	10178
scalar tree_4_3_u03_r1_network.node[38].content_store 	p_hit[38] 	0.15835607376168
scalar tree_4_3_u03_r1_network.node[38].content_store 	hits[38] 	1915
scalar tree_4_3_u03_r1_network.node[38].content_store 	misses[38] 	10178
scalar tree_4_3_u03_r1_network.node[38].content_store 	decision_yes[38] 	10178
scalar tree_4_3_u03_r1_network.node[38].content_store 	decision_no[38] 	0
scalar tree_4_3_u03_r1_network.node[38].content_store 	decision_ratio[38] 	1
scalar tree_4_3_u03_r1_network.node[39].core_layer 	interests[39] 	12086
scalar tree_4_3_u03_r1_network.node[39].core_layer 	data[39] 	10192
scalar tree_4_3_u03_r1_network.node[39].content_store 	p_hit[39] 	0.15662750289591
scalar tree_4_3_u03_r1_network.node[39].content_store 	hits[39] 	1893
scalar tree_4_3_u03_r1_network.node[39].content_store 	misses[39] 	10193
scalar tree_4_3_u03_r1_network.node[39].content_store 	decision_yes[39] 	10192
scalar tree_4_3_u03_r1_network.node[39].content_store 	decision_no[39] 	0
scalar tree_4_3_u03_r1_network.node[39].content_store 	decision_ratio[39] 	1
scalar tree_4_3_u03_r1_network.client[13] 	hdistance[13] 	3.337638681901
scalar tree_4_3_u03_r1_network.client[13] 	downloads[13] 	12078
scalar tree_4_3_u03_r1_network.client[13] 	avg_time[13] 	0.005005860283
scalar tree_4_3_u03_r1_network.client[14] 	hdistance[14] 	3.3844877644131
scalar tree_4_3_u03_r1_network.client[14] 	downloads[14] 	12055
scalar tree_4_3_u03_r1_network.client[14] 	avg_time[14] 	0.005076522472
scalar tree_4_3_u03_r1_network.client[15] 	hdistance[15] 	3.3736737400531
scalar tree_4_3_u03_r1_network.client[15] 	downloads[15] 	12064
scalar tree_4_3_u03_r1_network.client[15] 	avg_time[15] 	0.005059961572
scalar tree_4_3_u03_r1_network.client[16] 	hdistance[16] 	3.3733750205694
scalar tree_4_3_u03_r1_network.client[16] 	downloads[16] 	12154
scalar tree_4_3_u03_r1_network.client[16] 	avg_time[16] 	0.005059454061
scalar tree_4_3_u03_r1_network.client[17] 	hdistance[17] 	3.3394069902269
scalar tree_4_3_u03_r1_network.client[17] 	downloads[17] 	12074
scalar tree_4_3_u03_r1_network.client[17] 	avg_time[17] 	0.005008737374
scalar tree_4_3_u03_r1_network.client[18] 	hdistance[18] 	3.3958245287803
scalar tree_4_3_u03_r1_network.client[18] 	downloads[18] 	11831
scalar tree_4_3_u03_r1_network.client[18] 	avg_time[18] 	0.005093423505
scalar tree_4_3_u03_r1_network.client[19] 	hdistance[19] 	3.3810432042458
scalar tree_4_3_u03_r1_network.client[19] 	downloads[19] 	12059
scalar tree_4_3_u03_r1_network.client[19] 	avg_time[19] 	0.005071243775
scalar tree_4_3_u03_r1_network.client[20] 	hdistance[20] 	3.3834624031976
scalar tree_4_3_u03_r1_network.client[20] 	downloads[20] 	12009
scalar tree_4_3_u03_r1_network.client[20] 	avg_time[20] 	0.005075190628
scalar tree_4_3_u03_r1_network.client[21] 	hdistance[21] 	3.4056969492668
scalar tree_4_3_u03_r1_network.client[21] 	downloads[21] 	11866
scalar tree_4_3_u03_r1_network.client[21] 	avg_time[21] 	0.005108017259
scalar tree_4_3_u03_r1_network.client[22] 	hdistance[22] 	3.359610868836
scalar tree_4_3_u03_r1_network.client[22] 	downloads[22] 	11924
scalar tree_4_3_u03_r1_network.client[22] 	avg_time[22] 	0.005038663191
scalar tree_4_3_u03_r1_network.client[23] 	hdistance[23] 	3.3869885982562
scalar tree_4_3_u03_r1_network.client[23] 	downloads[23] 	11928
scalar tree_4_3_u03_r1_network.client[23] 	avg_time[23] 	0.005080438958
scalar tree_4_3_u03_r1_network.client[24] 	hdistance[24] 	3.3729892761394
scalar tree_4_3_u03_r1_network.client[24] 	downloads[24] 	11936
scalar tree_4_3_u03_r1_network.client[24] 	avg_time[24] 	0.005059425307
scalar tree_4_3_u03_r1_network.client[25] 	hdistance[25] 	3.3726818528241
scalar tree_4_3_u03_r1_network.client[25] 	downloads[25] 	11809
scalar tree_4_3_u03_r1_network.client[25] 	avg_time[25] 	0.005058878105
scalar tree_4_3_u03_r1_network.client[26] 	hdistance[26] 	3.3812678936605
scalar tree_4_3_u03_r1_network.client[26] 	downloads[26] 	12225
scalar tree_4_3_u03_r1_network.client[26] 	avg_time[26] 	0.005071741951
scalar tree_4_3_u03_r1_network.client[27] 	hdistance[27] 	3.3707333558635
scalar tree_4_3_u03_r1_network.client[27] 	downloads[27] 	11836
scalar tree_4_3_u03_r1_network.client[27] 	avg_time[27] 	0.00505563012
scalar tree_4_3_u03_r1_network.client[28] 	hdistance[28] 	3.3811333502238
scalar tree_4_3_u03_r1_network.client[28] 	downloads[28] 	11841
scalar tree_4_3_u03_r1_network.client[28] 	avg_time[28] 	0.005071519958
scalar tree_4_3_u03_r1_network.client[29] 	hdistance[29] 	3.3992770292475
scalar tree_4_3_u03_r1_network.client[29] 	downloads[29] 	12172
scalar tree_4_3_u03_r1_network.client[29] 	avg_time[29] 	0.005098228733
scalar tree_4_3_u03_r1_network.client[30] 	hdistance[30] 	3.3430669254789
scalar tree_4_3_u03_r1_network.client[30] 	downloads[30] 	11849
scalar tree_4_3_u03_r1_network.client[30] 	avg_time[30] 	0.005014478656
scalar tree_4_3_u03_r1_network.client[31] 	hdistance[31] 	3.3860496087897
scalar tree_4_3_u03_r1_network.client[31] 	downloads[31] 	12014
scalar tree_4_3_u03_r1_network.client[31] 	avg_time[31] 	0.005078972812
scalar tree_4_3_u03_r1_network.client[32] 	hdistance[32] 	3.3548169394297
scalar tree_4_3_u03_r1_network.client[32] 	downloads[32] 	11854
scalar tree_4_3_u03_r1_network.client[32] 	avg_time[32] 	0.005031822615
scalar tree_4_3_u03_r1_network.client[33] 	hdistance[33] 	3.3604553825548
scalar tree_4_3_u03_r1_network.client[33] 	downloads[33] 	11946
scalar tree_4_3_u03_r1_network.client[33] 	avg_time[33] 	0.005040100577
scalar tree_4_3_u03_r1_network.client[34] 	hdistance[34] 	3.374958151992
scalar tree_4_3_u03_r1_network.client[34] 	downloads[34] 	11948
scalar tree_4_3_u03_r1_network.client[34] 	avg_time[34] 	0.005061776567
scalar tree_4_3_u03_r1_network.client[35] 	hdistance[35] 	3.3658248162852
scalar tree_4_3_u03_r1_network.client[35] 	downloads[35] 	11839
scalar tree_4_3_u03_r1_network.client[35] 	avg_time[35] 	0.005048587837
scalar tree_4_3_u03_r1_network.client[36] 	hdistance[36] 	3.3531309454876
scalar tree_4_3_u03_r1_network.client[36] 	downloads[36] 	12089
scalar tree_4_3_u03_r1_network.client[36] 	avg_time[36] 	0.005029371736
scalar tree_4_3_u03_r1_network.client[37] 	hdistance[37] 	3.3668535095792
scalar tree_4_3_u03_r1_network.client[37] 	downloads[37] 	11953
scalar tree_4_3_u03_r1_network.client[37] 	avg_time[37] 	0.005050128348
scalar tree_4_3_u03_r1_network.client[38] 	hdistance[38] 	3.3665757049533
scalar tree_4_3_u03_r1_network.client[38] 	downloads[38] 	12093
scalar tree_4_3_u03_r1_network.client[38] 	avg_time[38] 	0.005049470471
scalar tree_4_3_u03_r1_network.client[39] 	hdistance[39] 	3.3734381464626
scalar tree_4_3_u03_r1_network.client[39] 	downloads[39] 	12085
scalar tree_4_3_u03_r1_network.client[39] 	avg_time[39] 	0.005060132686
