version 2
run General-14-20160822-14:08:06-32430
attr D fix0.001
attr F spr
attr R lru
attr a 0.7
attr configname General
attr datetime 20160822-14:08:06
attr experiment General
attr inifile hw5115/scenario_B/bus.ini
attr iterationvars "$net=bus, $rep=0, $a=0.7, $F=spr, $D=fix0.001, $R=lru, $window=60, $variance=0.05, $mytime=600"
attr iterationvars2 "$net=bus, $rep=0, $a=0.7, $F=spr, $D=fix0.001, $R=lru, $window=60, $variance=0.05, $mytime=600, $repetition=0"
attr measurement "$net=bus, $rep=0, $a=0.7, $F=spr, $D=fix0.001, $R=lru, $window=60, $variance=0.05, $mytime=600"
attr mytime 600
attr net bus
attr network networks.${net=bus}_network
attr processid 32430
attr rep 0
attr repetition 0
attr replication #0
attr resultdir results
attr runnumber 14
attr seedset 0
attr variance 0.05
attr window 60

scalar . 	a 	0.7
scalar . 	mytime 	600
scalar . 	rep 	0
scalar . 	variance 	0.05
scalar . 	window 	60
scalar bus_network.content_distribution 	repo-0 	9
scalar bus_network.content_distribution 	client-0 	5
scalar bus_network.content_distribution 	client-1 	8
scalar bus_network.content_distribution 	client-2 	9
scalar bus_network.content_distribution 	client-3 	0
scalar bus_network.content_distribution 	client-4 	1
scalar bus_network.content_distribution 	client-5 	7
scalar bus_network.content_distribution 	client-6 	6
scalar bus_network.content_distribution 	client-7 	2
scalar bus_network.content_distribution 	client-8 	4
scalar bus_network.content_distribution 	client-9 	3
scalar bus_network.content_distribution 	repo-0_card 	100000
scalar bus_network.content_distribution 	repo-0_price 	0
scalar bus_network.statistics 	stabilization_time 	5347.3
scalar bus_network.statistics 	p_hit 	0.027216105076034
scalar bus_network.statistics 	interests 	60733.2
scalar bus_network.statistics 	data 	48720.2
scalar bus_network.statistics 	hdistance 	4.9122799293503
scalar bus_network.statistics 	avg_time 	0.0080888075
scalar bus_network.statistics 	downloads 	120131
scalar bus_network.statistics 	total_cost 	0
scalar bus_network.statistics 	total_replicas 	100000
scalar bus_network.statistics 	inner_hit 	0.13247205134395
scalar bus_network.node[0].core_layer 	interests[0] 	12071
scalar bus_network.node[0].core_layer 	data[0] 	11860
scalar bus_network.node[0].core_layer 	repo_int[0] 	104217
scalar bus_network.node[0].content_store 	p_hit[0] 	0.017397067351504
scalar bus_network.node[0].content_store 	hits[0] 	210
scalar bus_network.node[0].content_store 	misses[0] 	11861
scalar bus_network.node[0].content_store 	decision_yes[0] 	8
scalar bus_network.node[0].content_store 	decision_no[0] 	11852
scalar bus_network.node[0].content_store 	decision_ratio[0] 	0.00067453625632378
scalar bus_network.node[1].core_layer 	interests[1] 	23823
scalar bus_network.node[1].core_layer 	data[1] 	23078
scalar bus_network.node[1].content_store 	p_hit[1] 	0.031272299878269
scalar bus_network.node[1].content_store 	hits[1] 	745
scalar bus_network.node[1].content_store 	misses[1] 	23078
scalar bus_network.node[1].content_store 	decision_yes[1] 	22
scalar bus_network.node[1].content_store 	decision_no[1] 	23056
scalar bus_network.node[1].content_store 	decision_ratio[1] 	0.0009532888465205
scalar bus_network.node[2].core_layer 	interests[2] 	35182
scalar bus_network.node[2].core_layer 	data[2] 	33758
scalar bus_network.node[2].content_store 	p_hit[2] 	0.040418395770564
scalar bus_network.node[2].content_store 	hits[2] 	1422
scalar bus_network.node[2].content_store 	misses[2] 	33760
scalar bus_network.node[2].content_store 	decision_yes[2] 	37
scalar bus_network.node[2].content_store 	decision_no[2] 	33721
scalar bus_network.node[2].content_store 	decision_ratio[2] 	0.001096036495053
scalar bus_network.node[3].core_layer 	interests[3] 	45809
scalar bus_network.node[3].core_layer 	data[3] 	44467
scalar bus_network.node[3].content_store 	p_hit[3] 	0.029251893732673
scalar bus_network.node[3].content_store 	hits[3] 	1340
scalar bus_network.node[3].content_store 	misses[3] 	44469
scalar bus_network.node[3].content_store 	decision_yes[3] 	49
scalar bus_network.node[3].content_store 	decision_no[3] 	44418
scalar bus_network.node[3].content_store 	decision_ratio[3] 	0.0011019407650617
scalar bus_network.node[4].core_layer 	interests[4] 	56656
scalar bus_network.node[4].core_layer 	data[4] 	54849
scalar bus_network.node[4].content_store 	p_hit[4] 	0.031858938153064
scalar bus_network.node[4].content_store 	hits[4] 	1805
scalar bus_network.node[4].content_store 	misses[4] 	54851
scalar bus_network.node[4].content_store 	decision_yes[4] 	55
scalar bus_network.node[4].content_store 	decision_no[4] 	54794
scalar bus_network.node[4].content_store 	decision_ratio[4] 	0.001002753012817
scalar bus_network.node[5].core_layer 	interests[5] 	66769
scalar bus_network.node[5].core_layer 	data[5] 	64665
scalar bus_network.node[5].content_store 	p_hit[5] 	0.0314966526382
scalar bus_network.node[5].content_store 	hits[5] 	2103
scalar bus_network.node[5].content_store 	misses[5] 	64666
scalar bus_network.node[5].content_store 	decision_yes[5] 	62
scalar bus_network.node[5].content_store 	decision_no[5] 	64603
scalar bus_network.node[5].content_store 	decision_ratio[5] 	0.0009587875976185
scalar bus_network.node[6].core_layer 	interests[6] 	76846
scalar bus_network.node[6].core_layer 	data[6] 	75328
scalar bus_network.node[6].content_store 	p_hit[6] 	0.019753793300887
scalar bus_network.node[6].content_store 	hits[6] 	1518
scalar bus_network.node[6].content_store 	misses[6] 	75328
scalar bus_network.node[6].content_store 	decision_yes[6] 	81
scalar bus_network.node[6].content_store 	decision_no[6] 	75247
scalar bus_network.node[6].content_store 	decision_ratio[6] 	0.0010752973661852
scalar bus_network.node[7].core_layer 	interests[7] 	87206
scalar bus_network.node[7].core_layer 	data[7] 	84715
scalar bus_network.node[7].content_store 	p_hit[7] 	0.028576015411784
scalar bus_network.node[7].content_store 	hits[7] 	2492
scalar bus_network.node[7].content_store 	misses[7] 	84714
scalar bus_network.node[7].content_store 	decision_yes[7] 	85
scalar bus_network.node[7].content_store 	decision_no[7] 	84630
scalar bus_network.node[7].content_store 	decision_ratio[7] 	0.0010033642212123
scalar bus_network.node[8].core_layer 	interests[8] 	96545
scalar bus_network.node[8].core_layer 	data[8] 	94482
scalar bus_network.node[8].content_store 	p_hit[8] 	0.021388989590346
scalar bus_network.node[8].content_store 	hits[8] 	2065
scalar bus_network.node[8].content_store 	misses[8] 	94480
scalar bus_network.node[8].content_store 	decision_yes[8] 	100
scalar bus_network.node[8].content_store 	decision_no[8] 	94382
scalar bus_network.node[8].content_store 	decision_ratio[8] 	0.0010584026587075
scalar bus_network.node[9].core_layer 	interests[9] 	106425
scalar bus_network.node[9].core_layer 	repo_load[9] 	104217
scalar bus_network.node[9].core_layer 	data[9] 	0
scalar bus_network.node[9].content_store 	p_hit[9] 	0.020747004933051
scalar bus_network.node[9].content_store 	hits[9] 	2208
scalar bus_network.node[9].content_store 	misses[9] 	104217
scalar bus_network.node[9].content_store 	decision_yes[9] 	82
scalar bus_network.node[9].content_store 	decision_no[9] 	104135
scalar bus_network.node[9].content_store 	decision_ratio[9] 	0.00078681980866845
scalar bus_network.client[0] 	hdistance[0] 	8.9075393537696
scalar bus_network.client[0] 	downloads[0] 	12070
scalar bus_network.client[0] 	avg_time[0] 	0.016154479637
scalar bus_network.client[1] 	hdistance[1] 	7.9526038619076
scalar bus_network.client[1] 	downloads[1] 	11963
scalar bus_network.client[1] 	avg_time[1] 	0.01423956905
scalar bus_network.client[2] 	hdistance[2] 	7.0345368916797
scalar bus_network.client[2] 	downloads[2] 	12103
scalar bus_network.client[2] 	avg_time[2] 	0.012399236834
scalar bus_network.client[3] 	hdistance[3] 	6.2205992198523
scalar bus_network.client[3] 	downloads[3] 	12049
scalar bus_network.client[3] 	avg_time[3] 	0.010747316306
scalar bus_network.client[4] 	hdistance[4] 	5.3408811223234
scalar bus_network.client[4] 	downloads[4] 	12189
scalar bus_network.client[4] 	avg_time[4] 	0.008976444255
scalar bus_network.client[5] 	hdistance[5] 	4.4761744966443
scalar bus_network.client[5] 	downloads[5] 	11920
scalar bus_network.client[5] 	avg_time[5] 	0.007227711707
scalar bus_network.client[6] 	hdistance[6] 	3.6362666228862
scalar bus_network.client[6] 	downloads[6] 	12182
scalar bus_network.client[6] 	avg_time[6] 	0.00552135359
scalar bus_network.client[7] 	hdistance[7] 	2.7509891405
scalar bus_network.client[7] 	downloads[7] 	11879
scalar bus_network.client[7] 	avg_time[7] 	0.003720343862
scalar bus_network.client[8] 	hdistance[8] 	1.8618154158215
scalar bus_network.client[8] 	downloads[8] 	11832
scalar bus_network.client[8] 	avg_time[8] 	0.00190161976
scalar bus_network.client[9] 	hdistance[9] 	0.94139316811788
scalar bus_network.client[9] 	downloads[9] 	11944
scalar bus_network.client[9] 	avg_time[9] 	0
