version 2
run General-204-20160902-16:43:49-7280
attr a 0.9
attr cd wfc0.01
attr configname General
attr cr lru
attr datetime 20160902-16:43:49
attr experiment General
attr fsize 1
attr inifile hw5115/scenario_Y/omnetp.ini
attr iterationvars "$name=tree_4_3, $un=10, $rep=5, $cd=wfc0.01, $cr=lru, $fsize=1, $a=0.9, $sl=nrr, $ttl=1000, $variance=0.05"
attr iterationvars2 "$name=tree_4_3, $un=10, $rep=5, $cd=wfc0.01, $cr=lru, $fsize=1, $a=0.9, $sl=nrr, $ttl=1000, $variance=0.05, $repetition=0"
attr measurement "$name=tree_4_3, $un=10, $rep=5, $cd=wfc0.01, $cr=lru, $fsize=1, $a=0.9, $sl=nrr, $ttl=1000, $variance=0.05"
attr name tree_4_3
attr network networks.${name}_u${un}_r${rep}_network
attr processid 7280
attr rep 5
attr repetition 0
attr replication #0
attr resultdir results
attr runnumber 204
attr seedset 5
attr sl nrr
attr ttl 1000
attr un 10
attr variance 0.05

scalar . 	a 	0.9
scalar . 	fsize 	1
scalar . 	rep 	5
scalar . 	ttl 	1000
scalar . 	un 	10
scalar . 	variance 	0.05
scalar tree_4_3_u10_r5_network.content_distribution 	repo-0 	0
scalar tree_4_3_u10_r5_network.content_distribution 	client-0 	13
scalar tree_4_3_u10_r5_network.content_distribution 	client-1 	14
scalar tree_4_3_u10_r5_network.content_distribution 	client-2 	15
scalar tree_4_3_u10_r5_network.content_distribution 	client-3 	16
scalar tree_4_3_u10_r5_network.content_distribution 	client-4 	17
scalar tree_4_3_u10_r5_network.content_distribution 	client-5 	18
scalar tree_4_3_u10_r5_network.content_distribution 	client-6 	19
scalar tree_4_3_u10_r5_network.content_distribution 	client-7 	20
scalar tree_4_3_u10_r5_network.content_distribution 	client-8 	21
scalar tree_4_3_u10_r5_network.content_distribution 	client-9 	22
scalar tree_4_3_u10_r5_network.content_distribution 	client-10 	23
scalar tree_4_3_u10_r5_network.content_distribution 	client-11 	24
scalar tree_4_3_u10_r5_network.content_distribution 	client-12 	25
scalar tree_4_3_u10_r5_network.content_distribution 	client-13 	26
scalar tree_4_3_u10_r5_network.content_distribution 	client-14 	27
scalar tree_4_3_u10_r5_network.content_distribution 	client-15 	28
scalar tree_4_3_u10_r5_network.content_distribution 	client-16 	29
scalar tree_4_3_u10_r5_network.content_distribution 	client-17 	30
scalar tree_4_3_u10_r5_network.content_distribution 	client-18 	31
scalar tree_4_3_u10_r5_network.content_distribution 	client-19 	32
scalar tree_4_3_u10_r5_network.content_distribution 	client-20 	33
scalar tree_4_3_u10_r5_network.content_distribution 	client-21 	34
scalar tree_4_3_u10_r5_network.content_distribution 	client-22 	35
scalar tree_4_3_u10_r5_network.content_distribution 	client-23 	36
scalar tree_4_3_u10_r5_network.content_distribution 	client-24 	37
scalar tree_4_3_u10_r5_network.content_distribution 	client-25 	38
scalar tree_4_3_u10_r5_network.content_distribution 	client-26 	39
scalar tree_4_3_u10_r5_network.content_distribution 	repo-0_card 	100000
scalar tree_4_3_u10_r5_network.content_distribution 	repo-0_price 	0
scalar tree_4_3_u10_r5_network.statistics 	stabilization_time 	1221.1
scalar tree_4_3_u10_r5_network.statistics 	p_hit 	0.24339667971763
scalar tree_4_3_u10_r5_network.statistics 	interests 	24929.6
scalar tree_4_3_u10_r5_network.statistics 	data 	16847.475
scalar tree_4_3_u10_r5_network.statistics 	hdistance 	2.6427089692396
scalar tree_4_3_u10_r5_network.statistics 	avg_time 	0.004169058096
scalar tree_4_3_u10_r5_network.statistics 	downloads 	323283
scalar tree_4_3_u10_r5_network.statistics 	total_cost 	0
scalar tree_4_3_u10_r5_network.statistics 	total_replicas 	100000
scalar tree_4_3_u10_r5_network.statistics 	inner_hit 	0.44184507072751
scalar tree_4_3_u10_r5_network.node[0].core_layer 	interests[0] 	182424
scalar tree_4_3_u10_r5_network.node[0].core_layer 	repo_load[0] 	180442
scalar tree_4_3_u10_r5_network.node[0].core_layer 	data[0] 	0
scalar tree_4_3_u10_r5_network.node[0].core_layer 	repo_int[0] 	180442
scalar tree_4_3_u10_r5_network.node[0].content_store 	p_hit[0] 	0.010864798491427
scalar tree_4_3_u10_r5_network.node[0].content_store 	hits[0] 	1982
scalar tree_4_3_u10_r5_network.node[0].content_store 	misses[0] 	180442
scalar tree_4_3_u10_r5_network.node[0].content_store 	decision_yes[0] 	2532
scalar tree_4_3_u10_r5_network.node[0].content_store 	decision_no[0] 	177910
scalar tree_4_3_u10_r5_network.node[0].content_store 	decision_ratio[0] 	0.014032209795946
scalar tree_4_3_u10_r5_network.node[1].core_layer 	interests[1] 	138417
scalar tree_4_3_u10_r5_network.node[1].core_layer 	data[1] 	136774
scalar tree_4_3_u10_r5_network.node[1].content_store 	p_hit[1] 	0.011819357448868
scalar tree_4_3_u10_r5_network.node[1].content_store 	hits[1] 	1636
scalar tree_4_3_u10_r5_network.node[1].content_store 	misses[1] 	136781
scalar tree_4_3_u10_r5_network.node[1].content_store 	decision_yes[1] 	1528
scalar tree_4_3_u10_r5_network.node[1].content_store 	decision_no[1] 	135246
scalar tree_4_3_u10_r5_network.node[1].content_store 	decision_ratio[1] 	0.011171713922237
scalar tree_4_3_u10_r5_network.node[2].core_layer 	interests[2] 	56017
scalar tree_4_3_u10_r5_network.node[2].core_layer 	data[2] 	53241
scalar tree_4_3_u10_r5_network.node[2].content_store 	p_hit[2] 	0.049538532945356
scalar tree_4_3_u10_r5_network.node[2].content_store 	hits[2] 	2775
scalar tree_4_3_u10_r5_network.node[2].content_store 	misses[2] 	53242
scalar tree_4_3_u10_r5_network.node[2].content_store 	decision_yes[2] 	716
scalar tree_4_3_u10_r5_network.node[2].content_store 	decision_no[2] 	52524
scalar tree_4_3_u10_r5_network.node[2].content_store 	decision_ratio[2] 	0.013448534936138
scalar tree_4_3_u10_r5_network.node[3].core_layer 	interests[3] 	14584
scalar tree_4_3_u10_r5_network.node[3].core_layer 	data[3] 	10748
scalar tree_4_3_u10_r5_network.node[3].content_store 	p_hit[3] 	0.26302797586396
scalar tree_4_3_u10_r5_network.node[3].content_store 	hits[3] 	3836
scalar tree_4_3_u10_r5_network.node[3].content_store 	misses[3] 	10748
scalar tree_4_3_u10_r5_network.node[3].content_store 	decision_yes[3] 	352
scalar tree_4_3_u10_r5_network.node[3].content_store 	decision_no[3] 	10396
scalar tree_4_3_u10_r5_network.node[3].content_store 	decision_ratio[3] 	0.032750279121697
scalar tree_4_3_u10_r5_network.node[4].core_layer 	interests[4] 	42289
scalar tree_4_3_u10_r5_network.node[4].core_layer 	data[4] 	39936
scalar tree_4_3_u10_r5_network.node[4].content_store 	p_hit[4] 	0.055640946818322
scalar tree_4_3_u10_r5_network.node[4].content_store 	hits[4] 	2353
scalar tree_4_3_u10_r5_network.node[4].content_store 	misses[4] 	39936
scalar tree_4_3_u10_r5_network.node[4].content_store 	decision_yes[4] 	562
scalar tree_4_3_u10_r5_network.node[4].content_store 	decision_no[4] 	39374
scalar tree_4_3_u10_r5_network.node[4].content_store 	decision_ratio[4] 	0.014072516025641
scalar tree_4_3_u10_r5_network.node[5].core_layer 	interests[5] 	29967
scalar tree_4_3_u10_r5_network.node[5].core_layer 	data[5] 	26362
scalar tree_4_3_u10_r5_network.node[5].content_store 	p_hit[5] 	0.12023225548103
scalar tree_4_3_u10_r5_network.node[5].content_store 	hits[5] 	3603
scalar tree_4_3_u10_r5_network.node[5].content_store 	misses[5] 	26364
scalar tree_4_3_u10_r5_network.node[5].content_store 	decision_yes[5] 	475
scalar tree_4_3_u10_r5_network.node[5].content_store 	decision_no[5] 	25887
scalar tree_4_3_u10_r5_network.node[5].content_store 	decision_ratio[5] 	0.018018359760261
scalar tree_4_3_u10_r5_network.node[6].core_layer 	interests[6] 	15064
scalar tree_4_3_u10_r5_network.node[6].core_layer 	data[6] 	11336
scalar tree_4_3_u10_r5_network.node[6].content_store 	p_hit[6] 	0.24747742963356
scalar tree_4_3_u10_r5_network.node[6].content_store 	hits[6] 	3728
scalar tree_4_3_u10_r5_network.node[6].content_store 	misses[6] 	11336
scalar tree_4_3_u10_r5_network.node[6].content_store 	decision_yes[6] 	413
scalar tree_4_3_u10_r5_network.node[6].content_store 	decision_no[6] 	10923
scalar tree_4_3_u10_r5_network.node[6].content_store 	decision_ratio[6] 	0.036432604093155
scalar tree_4_3_u10_r5_network.node[7].core_layer 	interests[7] 	44544
scalar tree_4_3_u10_r5_network.node[7].core_layer 	data[7] 	41381
scalar tree_4_3_u10_r5_network.node[7].content_store 	p_hit[7] 	0.071008441091954
scalar tree_4_3_u10_r5_network.node[7].content_store 	hits[7] 	3163
scalar tree_4_3_u10_r5_network.node[7].content_store 	misses[7] 	41381
scalar tree_4_3_u10_r5_network.node[7].content_store 	decision_yes[7] 	595
scalar tree_4_3_u10_r5_network.node[7].content_store 	decision_no[7] 	40786
scalar tree_4_3_u10_r5_network.node[7].content_store 	decision_ratio[7] 	0.014378579541335
scalar tree_4_3_u10_r5_network.node[8].core_layer 	interests[8] 	26901
scalar tree_4_3_u10_r5_network.node[8].core_layer 	data[8] 	24399
scalar tree_4_3_u10_r5_network.node[8].content_store 	p_hit[8] 	0.093007694881231
scalar tree_4_3_u10_r5_network.node[8].content_store 	hits[8] 	2502
scalar tree_4_3_u10_r5_network.node[8].content_store 	misses[8] 	24399
scalar tree_4_3_u10_r5_network.node[8].content_store 	decision_yes[8] 	386
scalar tree_4_3_u10_r5_network.node[8].content_store 	decision_no[8] 	24013
scalar tree_4_3_u10_r5_network.node[8].content_store 	decision_ratio[8] 	0.015820320504939
scalar tree_4_3_u10_r5_network.node[9].core_layer 	interests[9] 	14565
scalar tree_4_3_u10_r5_network.node[9].core_layer 	data[9] 	11113
scalar tree_4_3_u10_r5_network.node[9].content_store 	p_hit[9] 	0.23700652248541
scalar tree_4_3_u10_r5_network.node[9].content_store 	hits[9] 	3452
scalar tree_4_3_u10_r5_network.node[9].content_store 	misses[9] 	11113
scalar tree_4_3_u10_r5_network.node[9].content_store 	decision_yes[9] 	420
scalar tree_4_3_u10_r5_network.node[9].content_store 	decision_no[9] 	10693
scalar tree_4_3_u10_r5_network.node[9].content_store 	decision_ratio[9] 	0.037793575092234
scalar tree_4_3_u10_r5_network.node[10].core_layer 	interests[10] 	44730
scalar tree_4_3_u10_r5_network.node[10].core_layer 	data[10] 	41719
scalar tree_4_3_u10_r5_network.node[10].content_store 	p_hit[10] 	0.067270288397049
scalar tree_4_3_u10_r5_network.node[10].content_store 	hits[10] 	3009
scalar tree_4_3_u10_r5_network.node[10].content_store 	misses[10] 	41721
scalar tree_4_3_u10_r5_network.node[10].content_store 	decision_yes[10] 	660
scalar tree_4_3_u10_r5_network.node[10].content_store 	decision_no[10] 	41059
scalar tree_4_3_u10_r5_network.node[10].content_store 	decision_ratio[10] 	0.015820129916824
scalar tree_4_3_u10_r5_network.node[11].core_layer 	interests[11] 	29331
scalar tree_4_3_u10_r5_network.node[11].core_layer 	data[11] 	26175
scalar tree_4_3_u10_r5_network.node[11].content_store 	p_hit[11] 	0.10759946813951
scalar tree_4_3_u10_r5_network.node[11].content_store 	hits[11] 	3156
scalar tree_4_3_u10_r5_network.node[11].content_store 	misses[11] 	26175
scalar tree_4_3_u10_r5_network.node[11].content_store 	decision_yes[11] 	488
scalar tree_4_3_u10_r5_network.node[11].content_store 	decision_no[11] 	25687
scalar tree_4_3_u10_r5_network.node[11].content_store 	decision_ratio[11] 	0.018643744030564
scalar tree_4_3_u10_r5_network.node[12].core_layer 	interests[12] 	12273
scalar tree_4_3_u10_r5_network.node[12].core_layer 	data[12] 	9391
scalar tree_4_3_u10_r5_network.node[12].content_store 	p_hit[12] 	0.23482441130938
scalar tree_4_3_u10_r5_network.node[12].content_store 	hits[12] 	2882
scalar tree_4_3_u10_r5_network.node[12].content_store 	misses[12] 	9391
scalar tree_4_3_u10_r5_network.node[12].content_store 	decision_yes[12] 	238
scalar tree_4_3_u10_r5_network.node[12].content_store 	decision_no[12] 	9153
scalar tree_4_3_u10_r5_network.node[12].content_store 	decision_ratio[12] 	0.025343413906932
scalar tree_4_3_u10_r5_network.node[13].core_layer 	interests[13] 	12554
scalar tree_4_3_u10_r5_network.node[13].core_layer 	data[13] 	8979
scalar tree_4_3_u10_r5_network.node[13].content_store 	p_hit[13] 	0.28476979448781
scalar tree_4_3_u10_r5_network.node[13].content_store 	hits[13] 	3575
scalar tree_4_3_u10_r5_network.node[13].content_store 	misses[13] 	8979
scalar tree_4_3_u10_r5_network.node[13].content_store 	decision_yes[13] 	114
scalar tree_4_3_u10_r5_network.node[13].content_store 	decision_no[13] 	8865
scalar tree_4_3_u10_r5_network.node[13].content_store 	decision_ratio[13] 	0.012696291346475
scalar tree_4_3_u10_r5_network.node[14].core_layer 	interests[14] 	13284
scalar tree_4_3_u10_r5_network.node[14].core_layer 	data[14] 	9058
scalar tree_4_3_u10_r5_network.node[14].content_store 	p_hit[14] 	0.31805179162903
scalar tree_4_3_u10_r5_network.node[14].content_store 	hits[14] 	4225
scalar tree_4_3_u10_r5_network.node[14].content_store 	misses[14] 	9059
scalar tree_4_3_u10_r5_network.node[14].content_store 	decision_yes[14] 	131
scalar tree_4_3_u10_r5_network.node[14].content_store 	decision_no[14] 	8927
scalar tree_4_3_u10_r5_network.node[14].content_store 	decision_ratio[14] 	0.014462353720468
scalar tree_4_3_u10_r5_network.node[15].core_layer 	interests[15] 	13033
scalar tree_4_3_u10_r5_network.node[15].core_layer 	data[15] 	8860
scalar tree_4_3_u10_r5_network.node[15].content_store 	p_hit[15] 	0.32018721706438
scalar tree_4_3_u10_r5_network.node[15].content_store 	hits[15] 	4173
scalar tree_4_3_u10_r5_network.node[15].content_store 	misses[15] 	8860
scalar tree_4_3_u10_r5_network.node[15].content_store 	decision_yes[15] 	136
scalar tree_4_3_u10_r5_network.node[15].content_store 	decision_no[15] 	8724
scalar tree_4_3_u10_r5_network.node[15].content_store 	decision_ratio[15] 	0.015349887133183
scalar tree_4_3_u10_r5_network.node[16].core_layer 	interests[16] 	13124
scalar tree_4_3_u10_r5_network.node[16].core_layer 	data[16] 	9110
scalar tree_4_3_u10_r5_network.node[16].content_store 	p_hit[16] 	0.30585187442853
scalar tree_4_3_u10_r5_network.node[16].content_store 	hits[16] 	4014
scalar tree_4_3_u10_r5_network.node[16].content_store 	misses[16] 	9110
scalar tree_4_3_u10_r5_network.node[16].content_store 	decision_yes[16] 	123
scalar tree_4_3_u10_r5_network.node[16].content_store 	decision_no[16] 	8987
scalar tree_4_3_u10_r5_network.node[16].content_store 	decision_ratio[16] 	0.013501646542261
scalar tree_4_3_u10_r5_network.node[17].core_layer 	interests[17] 	12673
scalar tree_4_3_u10_r5_network.node[17].core_layer 	data[17] 	9003
scalar tree_4_3_u10_r5_network.node[17].content_store 	p_hit[17] 	0.28967095399669
scalar tree_4_3_u10_r5_network.node[17].content_store 	hits[17] 	3671
scalar tree_4_3_u10_r5_network.node[17].content_store 	misses[17] 	9002
scalar tree_4_3_u10_r5_network.node[17].content_store 	decision_yes[17] 	102
scalar tree_4_3_u10_r5_network.node[17].content_store 	decision_no[17] 	8901
scalar tree_4_3_u10_r5_network.node[17].content_store 	decision_ratio[17] 	0.011329556814395
scalar tree_4_3_u10_r5_network.node[18].core_layer 	interests[18] 	12784
scalar tree_4_3_u10_r5_network.node[18].core_layer 	data[18] 	8925
scalar tree_4_3_u10_r5_network.node[18].content_store 	p_hit[18] 	0.30186170212766
scalar tree_4_3_u10_r5_network.node[18].content_store 	hits[18] 	3859
scalar tree_4_3_u10_r5_network.node[18].content_store 	misses[18] 	8925
scalar tree_4_3_u10_r5_network.node[18].content_store 	decision_yes[18] 	147
scalar tree_4_3_u10_r5_network.node[18].content_store 	decision_no[18] 	8778
scalar tree_4_3_u10_r5_network.node[18].content_store 	decision_ratio[18] 	0.016470588235294
scalar tree_4_3_u10_r5_network.node[19].core_layer 	interests[19] 	13018
scalar tree_4_3_u10_r5_network.node[19].core_layer 	data[19] 	8885
scalar tree_4_3_u10_r5_network.node[19].content_store 	p_hit[19] 	0.31756030112152
scalar tree_4_3_u10_r5_network.node[19].content_store 	hits[19] 	4134
scalar tree_4_3_u10_r5_network.node[19].content_store 	misses[19] 	8884
scalar tree_4_3_u10_r5_network.node[19].content_store 	decision_yes[19] 	133
scalar tree_4_3_u10_r5_network.node[19].content_store 	decision_no[19] 	8752
scalar tree_4_3_u10_r5_network.node[19].content_store 	decision_ratio[19] 	0.01496904895892
scalar tree_4_3_u10_r5_network.node[20].core_layer 	interests[20] 	12898
scalar tree_4_3_u10_r5_network.node[20].core_layer 	data[20] 	8858
scalar tree_4_3_u10_r5_network.node[20].content_store 	p_hit[20] 	0.31314932547682
scalar tree_4_3_u10_r5_network.node[20].content_store 	hits[20] 	4039
scalar tree_4_3_u10_r5_network.node[20].content_store 	misses[20] 	8859
scalar tree_4_3_u10_r5_network.node[20].content_store 	decision_yes[20] 	138
scalar tree_4_3_u10_r5_network.node[20].content_store 	decision_no[20] 	8720
scalar tree_4_3_u10_r5_network.node[20].content_store 	decision_ratio[20] 	0.015579137502822
scalar tree_4_3_u10_r5_network.node[21].core_layer 	interests[21] 	12625
scalar tree_4_3_u10_r5_network.node[21].core_layer 	data[21] 	9070
scalar tree_4_3_u10_r5_network.node[21].content_store 	p_hit[21] 	0.28158415841584
scalar tree_4_3_u10_r5_network.node[21].content_store 	hits[21] 	3555
scalar tree_4_3_u10_r5_network.node[21].content_store 	misses[21] 	9070
scalar tree_4_3_u10_r5_network.node[21].content_store 	decision_yes[21] 	131
scalar tree_4_3_u10_r5_network.node[21].content_store 	decision_no[21] 	8939
scalar tree_4_3_u10_r5_network.node[21].content_store 	decision_ratio[21] 	0.014443219404631
scalar tree_4_3_u10_r5_network.node[22].core_layer 	interests[22] 	12389
scalar tree_4_3_u10_r5_network.node[22].core_layer 	data[22] 	8948
scalar tree_4_3_u10_r5_network.node[22].content_store 	p_hit[22] 	0.27782710468964
scalar tree_4_3_u10_r5_network.node[22].content_store 	hits[22] 	3442
scalar tree_4_3_u10_r5_network.node[22].content_store 	misses[22] 	8947
scalar tree_4_3_u10_r5_network.node[22].content_store 	decision_yes[22] 	115
scalar tree_4_3_u10_r5_network.node[22].content_store 	decision_no[22] 	8833
scalar tree_4_3_u10_r5_network.node[22].content_store 	decision_ratio[22] 	0.012852033974072
scalar tree_4_3_u10_r5_network.node[23].core_layer 	interests[23] 	12775
scalar tree_4_3_u10_r5_network.node[23].core_layer 	data[23] 	8867
scalar tree_4_3_u10_r5_network.node[23].content_store 	p_hit[23] 	0.30590998043053
scalar tree_4_3_u10_r5_network.node[23].content_store 	hits[23] 	3908
scalar tree_4_3_u10_r5_network.node[23].content_store 	misses[23] 	8867
scalar tree_4_3_u10_r5_network.node[23].content_store 	decision_yes[23] 	149
scalar tree_4_3_u10_r5_network.node[23].content_store 	decision_no[23] 	8718
scalar tree_4_3_u10_r5_network.node[23].content_store 	decision_ratio[23] 	0.0168038795534
scalar tree_4_3_u10_r5_network.node[24].core_layer 	interests[24] 	13000
scalar tree_4_3_u10_r5_network.node[24].core_layer 	data[24] 	8844
scalar tree_4_3_u10_r5_network.node[24].content_store 	p_hit[24] 	0.31969230769231
scalar tree_4_3_u10_r5_network.node[24].content_store 	hits[24] 	4156
scalar tree_4_3_u10_r5_network.node[24].content_store 	misses[24] 	8844
scalar tree_4_3_u10_r5_network.node[24].content_store 	decision_yes[24] 	149
scalar tree_4_3_u10_r5_network.node[24].content_store 	decision_no[24] 	8695
scalar tree_4_3_u10_r5_network.node[24].content_store 	decision_ratio[24] 	0.016847580280416
scalar tree_4_3_u10_r5_network.node[25].core_layer 	interests[25] 	12832
scalar tree_4_3_u10_r5_network.node[25].core_layer 	data[25] 	8753
scalar tree_4_3_u10_r5_network.node[25].content_store 	p_hit[25] 	0.31787718204489
scalar tree_4_3_u10_r5_network.node[25].content_store 	hits[25] 	4079
scalar tree_4_3_u10_r5_network.node[25].content_store 	misses[25] 	8753
scalar tree_4_3_u10_r5_network.node[25].content_store 	decision_yes[25] 	135
scalar tree_4_3_u10_r5_network.node[25].content_store 	decision_no[25] 	8618
scalar tree_4_3_u10_r5_network.node[25].content_store 	decision_ratio[25] 	0.015423283445676
scalar tree_4_3_u10_r5_network.node[26].core_layer 	interests[26] 	12547
scalar tree_4_3_u10_r5_network.node[26].core_layer 	data[26] 	8960
scalar tree_4_3_u10_r5_network.node[26].content_store 	p_hit[26] 	0.2858850721288
scalar tree_4_3_u10_r5_network.node[26].content_store 	hits[26] 	3587
scalar tree_4_3_u10_r5_network.node[26].content_store 	misses[26] 	8960
scalar tree_4_3_u10_r5_network.node[26].content_store 	decision_yes[26] 	113
scalar tree_4_3_u10_r5_network.node[26].content_store 	decision_no[26] 	8847
scalar tree_4_3_u10_r5_network.node[26].content_store 	decision_ratio[26] 	0.012611607142857
scalar tree_4_3_u10_r5_network.node[27].core_layer 	interests[27] 	12690
scalar tree_4_3_u10_r5_network.node[27].core_layer 	data[27] 	8798
scalar tree_4_3_u10_r5_network.node[27].content_store 	p_hit[27] 	0.30669818754925
scalar tree_4_3_u10_r5_network.node[27].content_store 	hits[27] 	3892
scalar tree_4_3_u10_r5_network.node[27].content_store 	misses[27] 	8798
scalar tree_4_3_u10_r5_network.node[27].content_store 	decision_yes[27] 	140
scalar tree_4_3_u10_r5_network.node[27].content_store 	decision_no[27] 	8658
scalar tree_4_3_u10_r5_network.node[27].content_store 	decision_ratio[27] 	0.015912707433508
scalar tree_4_3_u10_r5_network.node[28].core_layer 	interests[28] 	13168
scalar tree_4_3_u10_r5_network.node[28].core_layer 	data[28] 	9064
scalar tree_4_3_u10_r5_network.node[28].content_store 	p_hit[28] 	0.31166464155529
scalar tree_4_3_u10_r5_network.node[28].content_store 	hits[28] 	4104
scalar tree_4_3_u10_r5_network.node[28].content_store 	misses[28] 	9064
scalar tree_4_3_u10_r5_network.node[28].content_store 	decision_yes[28] 	144
scalar tree_4_3_u10_r5_network.node[28].content_store 	decision_no[28] 	8920
scalar tree_4_3_u10_r5_network.node[28].content_store 	decision_ratio[28] 	0.015887025595763
scalar tree_4_3_u10_r5_network.node[29].core_layer 	interests[29] 	12792
scalar tree_4_3_u10_r5_network.node[29].core_layer 	data[29] 	8851
scalar tree_4_3_u10_r5_network.node[29].content_store 	p_hit[29] 	0.30808317698562
scalar tree_4_3_u10_r5_network.node[29].content_store 	hits[29] 	3941
scalar tree_4_3_u10_r5_network.node[29].content_store 	misses[29] 	8851
scalar tree_4_3_u10_r5_network.node[29].content_store 	decision_yes[29] 	153
scalar tree_4_3_u10_r5_network.node[29].content_store 	decision_no[29] 	8698
scalar tree_4_3_u10_r5_network.node[29].content_store 	decision_ratio[29] 	0.017286182352277
scalar tree_4_3_u10_r5_network.node[30].core_layer 	interests[30] 	12447
scalar tree_4_3_u10_r5_network.node[30].core_layer 	data[30] 	8918
scalar tree_4_3_u10_r5_network.node[30].content_store 	p_hit[30] 	0.28352213384751
scalar tree_4_3_u10_r5_network.node[30].content_store 	hits[30] 	3529
scalar tree_4_3_u10_r5_network.node[30].content_store 	misses[30] 	8918
scalar tree_4_3_u10_r5_network.node[30].content_store 	decision_yes[30] 	148
scalar tree_4_3_u10_r5_network.node[30].content_store 	decision_no[30] 	8770
scalar tree_4_3_u10_r5_network.node[30].content_store 	decision_ratio[30] 	0.01659564924871
scalar tree_4_3_u10_r5_network.node[31].core_layer 	interests[31] 	12653
scalar tree_4_3_u10_r5_network.node[31].core_layer 	data[31] 	8975
scalar tree_4_3_u10_r5_network.node[31].content_store 	p_hit[31] 	0.29068205168735
scalar tree_4_3_u10_r5_network.node[31].content_store 	hits[31] 	3678
scalar tree_4_3_u10_r5_network.node[31].content_store 	misses[31] 	8975
scalar tree_4_3_u10_r5_network.node[31].content_store 	decision_yes[31] 	107
scalar tree_4_3_u10_r5_network.node[31].content_store 	decision_no[31] 	8868
scalar tree_4_3_u10_r5_network.node[31].content_store 	decision_ratio[31] 	0.011922005571031
scalar tree_4_3_u10_r5_network.node[32].core_layer 	interests[32] 	13048
scalar tree_4_3_u10_r5_network.node[32].core_layer 	data[32] 	8926
scalar tree_4_3_u10_r5_network.node[32].content_store 	p_hit[32] 	0.31591048436542
scalar tree_4_3_u10_r5_network.node[32].content_store 	hits[32] 	4122
scalar tree_4_3_u10_r5_network.node[32].content_store 	misses[32] 	8926
scalar tree_4_3_u10_r5_network.node[32].content_store 	decision_yes[32] 	129
scalar tree_4_3_u10_r5_network.node[32].content_store 	decision_no[32] 	8797
scalar tree_4_3_u10_r5_network.node[32].content_store 	decision_ratio[32] 	0.01445216222272
scalar tree_4_3_u10_r5_network.node[33].core_layer 	interests[33] 	12894
scalar tree_4_3_u10_r5_network.node[33].core_layer 	data[33] 	8915
scalar tree_4_3_u10_r5_network.node[33].content_store 	p_hit[33] 	0.30851558864588
scalar tree_4_3_u10_r5_network.node[33].content_store 	hits[33] 	3978
scalar tree_4_3_u10_r5_network.node[33].content_store 	misses[33] 	8916
scalar tree_4_3_u10_r5_network.node[33].content_store 	decision_yes[33] 	145
scalar tree_4_3_u10_r5_network.node[33].content_store 	decision_no[33] 	8770
scalar tree_4_3_u10_r5_network.node[33].content_store 	decision_ratio[33] 	0.016264722378015
scalar tree_4_3_u10_r5_network.node[34].core_layer 	interests[34] 	13308
scalar tree_4_3_u10_r5_network.node[34].core_layer 	data[34] 	9152
scalar tree_4_3_u10_r5_network.node[34].content_store 	p_hit[34] 	0.31229335737902
scalar tree_4_3_u10_r5_network.node[34].content_store 	hits[34] 	4156
scalar tree_4_3_u10_r5_network.node[34].content_store 	misses[34] 	9152
scalar tree_4_3_u10_r5_network.node[34].content_store 	decision_yes[34] 	122
scalar tree_4_3_u10_r5_network.node[34].content_store 	decision_no[34] 	9030
scalar tree_4_3_u10_r5_network.node[34].content_store 	decision_ratio[34] 	0.01333041958042
scalar tree_4_3_u10_r5_network.node[35].core_layer 	interests[35] 	12441
scalar tree_4_3_u10_r5_network.node[35].core_layer 	data[35] 	8813
scalar tree_4_3_u10_r5_network.node[35].content_store 	p_hit[35] 	0.29161642954746
scalar tree_4_3_u10_r5_network.node[35].content_store 	hits[35] 	3628
scalar tree_4_3_u10_r5_network.node[35].content_store 	misses[35] 	8813
scalar tree_4_3_u10_r5_network.node[35].content_store 	decision_yes[35] 	118
scalar tree_4_3_u10_r5_network.node[35].content_store 	decision_no[35] 	8695
scalar tree_4_3_u10_r5_network.node[35].content_store 	decision_ratio[35] 	0.013389311244752
scalar tree_4_3_u10_r5_network.node[36].core_layer 	interests[36] 	12847
scalar tree_4_3_u10_r5_network.node[36].core_layer 	data[36] 	9024
scalar tree_4_3_u10_r5_network.node[36].content_store 	p_hit[36] 	0.29757920136997
scalar tree_4_3_u10_r5_network.node[36].content_store 	hits[36] 	3823
scalar tree_4_3_u10_r5_network.node[36].content_store 	misses[36] 	9024
scalar tree_4_3_u10_r5_network.node[36].content_store 	decision_yes[36] 	139
scalar tree_4_3_u10_r5_network.node[36].content_store 	decision_no[36] 	8885
scalar tree_4_3_u10_r5_network.node[36].content_store 	decision_ratio[36] 	0.015403368794326
scalar tree_4_3_u10_r5_network.node[37].core_layer 	interests[37] 	12965
scalar tree_4_3_u10_r5_network.node[37].core_layer 	data[37] 	8913
scalar tree_4_3_u10_r5_network.node[37].content_store 	p_hit[37] 	0.31253374469726
scalar tree_4_3_u10_r5_network.node[37].content_store 	hits[37] 	4052
scalar tree_4_3_u10_r5_network.node[37].content_store 	misses[37] 	8913
scalar tree_4_3_u10_r5_network.node[37].content_store 	decision_yes[37] 	148
scalar tree_4_3_u10_r5_network.node[37].content_store 	decision_no[37] 	8765
scalar tree_4_3_u10_r5_network.node[37].content_store 	decision_ratio[37] 	0.016604959048581
scalar tree_4_3_u10_r5_network.node[38].core_layer 	interests[38] 	12860
scalar tree_4_3_u10_r5_network.node[38].core_layer 	data[38] 	8949
scalar tree_4_3_u10_r5_network.node[38].content_store 	p_hit[38] 	0.30412130637636
scalar tree_4_3_u10_r5_network.node[38].content_store 	hits[38] 	3911
scalar tree_4_3_u10_r5_network.node[38].content_store 	misses[38] 	8949
scalar tree_4_3_u10_r5_network.node[38].content_store 	decision_yes[38] 	148
scalar tree_4_3_u10_r5_network.node[38].content_store 	decision_no[38] 	8801
scalar tree_4_3_u10_r5_network.node[38].content_store 	decision_ratio[38] 	0.016538160688345
scalar tree_4_3_u10_r5_network.node[39].core_layer 	interests[39] 	12429
scalar tree_4_3_u10_r5_network.node[39].core_layer 	data[39] 	8906
scalar tree_4_3_u10_r5_network.node[39].content_store 	p_hit[39] 	0.28344999597715
scalar tree_4_3_u10_r5_network.node[39].content_store 	hits[39] 	3523
scalar tree_4_3_u10_r5_network.node[39].content_store 	misses[39] 	8906
scalar tree_4_3_u10_r5_network.node[39].content_store 	decision_yes[39] 	150
scalar tree_4_3_u10_r5_network.node[39].content_store 	decision_no[39] 	8756
scalar tree_4_3_u10_r5_network.node[39].content_store 	decision_ratio[39] 	0.016842578037278
scalar tree_4_3_u10_r5_network.client[13] 	hdistance[13] 	2.7293803686098
scalar tree_4_3_u10_r5_network.client[13] 	downloads[13] 	11991
scalar tree_4_3_u10_r5_network.client[13] 	avg_time[13] 	0.004294884845
scalar tree_4_3_u10_r5_network.client[14] 	hdistance[14] 	2.6155874114352
scalar tree_4_3_u10_r5_network.client[14] 	downloads[14] 	12138
scalar tree_4_3_u10_r5_network.client[14] 	avg_time[14] 	0.004133302825
scalar tree_4_3_u10_r5_network.client[15] 	hdistance[15] 	2.5934911737639
scalar tree_4_3_u10_r5_network.client[15] 	downloads[15] 	11953
scalar tree_4_3_u10_r5_network.client[15] 	avg_time[15] 	0.00408971146
scalar tree_4_3_u10_r5_network.client[16] 	hdistance[16] 	2.6536331321815
scalar tree_4_3_u10_r5_network.client[16] 	downloads[16] 	12097
scalar tree_4_3_u10_r5_network.client[16] 	avg_time[16] 	0.004183046504
scalar tree_4_3_u10_r5_network.client[17] 	hdistance[17] 	2.6986188073774
scalar tree_4_3_u10_r5_network.client[17] 	downloads[17] 	12091
scalar tree_4_3_u10_r5_network.client[17] 	avg_time[17] 	0.004267754325
scalar tree_4_3_u10_r5_network.client[18] 	hdistance[18] 	2.6286952089704
scalar tree_4_3_u10_r5_network.client[18] 	downloads[18] 	11772
scalar tree_4_3_u10_r5_network.client[18] 	avg_time[18] 	0.004148994681
scalar tree_4_3_u10_r5_network.client[19] 	hdistance[19] 	2.6294807370184
scalar tree_4_3_u10_r5_network.client[19] 	downloads[19] 	11940
scalar tree_4_3_u10_r5_network.client[19] 	avg_time[19] 	0.004137151619
scalar tree_4_3_u10_r5_network.client[20] 	hdistance[20] 	2.5849120148186
scalar tree_4_3_u10_r5_network.client[20] 	downloads[20] 	11877
scalar tree_4_3_u10_r5_network.client[20] 	avg_time[20] 	0.004075605334
scalar tree_4_3_u10_r5_network.client[21] 	hdistance[21] 	2.6709985194933
scalar tree_4_3_u10_r5_network.client[21] 	downloads[21] 	12158
scalar tree_4_3_u10_r5_network.client[21] 	avg_time[21] 	0.004230626997
scalar tree_4_3_u10_r5_network.client[22] 	hdistance[22] 	2.7364538285424
scalar tree_4_3_u10_r5_network.client[22] 	downloads[22] 	11793
scalar tree_4_3_u10_r5_network.client[22] 	avg_time[22] 	0.00434022088
scalar tree_4_3_u10_r5_network.client[23] 	hdistance[23] 	2.65465975703
scalar tree_4_3_u10_r5_network.client[23] 	downloads[23] 	11771
scalar tree_4_3_u10_r5_network.client[23] 	avg_time[23] 	0.004193523487
scalar tree_4_3_u10_r5_network.client[24] 	hdistance[24] 	2.5817725752508
scalar tree_4_3_u10_r5_network.client[24] 	downloads[24] 	11960
scalar tree_4_3_u10_r5_network.client[24] 	avg_time[24] 	0.004073910075
scalar tree_4_3_u10_r5_network.client[25] 	hdistance[25] 	2.6285884657978
scalar tree_4_3_u10_r5_network.client[25] 	downloads[25] 	11739
scalar tree_4_3_u10_r5_network.client[25] 	avg_time[25] 	0.00414986982
scalar tree_4_3_u10_r5_network.client[26] 	hdistance[26] 	2.7101413339946
scalar tree_4_3_u10_r5_network.client[26] 	downloads[26] 	12099
scalar tree_4_3_u10_r5_network.client[26] 	avg_time[26] 	0.004246298331
scalar tree_4_3_u10_r5_network.client[27] 	hdistance[27] 	2.6163077708741
scalar tree_4_3_u10_r5_network.client[27] 	downloads[27] 	11749
scalar tree_4_3_u10_r5_network.client[27] 	avg_time[27] 	0.004124092746
scalar tree_4_3_u10_r5_network.client[28] 	hdistance[28] 	2.6125309150866
scalar tree_4_3_u10_r5_network.client[28] 	downloads[28] 	12130
scalar tree_4_3_u10_r5_network.client[28] 	avg_time[28] 	0.004119370418
scalar tree_4_3_u10_r5_network.client[29] 	hdistance[29] 	2.6127898217126
scalar tree_4_3_u10_r5_network.client[29] 	downloads[29] 	11947
scalar tree_4_3_u10_r5_network.client[29] 	avg_time[29] 	0.004108476132
scalar tree_4_3_u10_r5_network.client[30] 	hdistance[30] 	2.6510719627722
scalar tree_4_3_u10_r5_network.client[30] 	downloads[30] 	12034
scalar tree_4_3_u10_r5_network.client[30] 	avg_time[30] 	0.004188629226
scalar tree_4_3_u10_r5_network.client[31] 	hdistance[31] 	2.6811800100284
scalar tree_4_3_u10_r5_network.client[31] 	downloads[31] 	11966
scalar tree_4_3_u10_r5_network.client[31] 	avg_time[31] 	0.004255387269
scalar tree_4_3_u10_r5_network.client[32] 	hdistance[32] 	2.620525259284
scalar tree_4_3_u10_r5_network.client[32] 	downloads[32] 	11956
scalar tree_4_3_u10_r5_network.client[32] 	avg_time[32] 	0.004133495569
scalar tree_4_3_u10_r5_network.client[33] 	hdistance[33] 	2.6153204967909
scalar tree_4_3_u10_r5_network.client[33] 	downloads[33] 	11997
scalar tree_4_3_u10_r5_network.client[33] 	avg_time[33] 	0.004118193234
scalar tree_4_3_u10_r5_network.client[34] 	hdistance[34] 	2.6352921783566
scalar tree_4_3_u10_r5_network.client[34] 	downloads[34] 	12133
scalar tree_4_3_u10_r5_network.client[34] 	avg_time[34] 	0.004160724784
scalar tree_4_3_u10_r5_network.client[35] 	hdistance[35] 	2.6465668645981
scalar tree_4_3_u10_r5_network.client[35] 	downloads[35] 	11957
scalar tree_4_3_u10_r5_network.client[35] 	avg_time[35] 	0.004194861924
scalar tree_4_3_u10_r5_network.client[36] 	hdistance[36] 	2.6462914959445
scalar tree_4_3_u10_r5_network.client[36] 	downloads[36] 	11959
scalar tree_4_3_u10_r5_network.client[36] 	avg_time[36] 	0.004169409157
scalar tree_4_3_u10_r5_network.client[37] 	hdistance[37] 	2.6209609911267
scalar tree_4_3_u10_r5_network.client[37] 	downloads[37] 	11946
scalar tree_4_3_u10_r5_network.client[37] 	avg_time[37] 	0.004131924037
scalar tree_4_3_u10_r5_network.client[38] 	hdistance[38] 	2.6043828339006
scalar tree_4_3_u10_r5_network.client[38] 	downloads[38] 	12047
scalar tree_4_3_u10_r5_network.client[38] 	avg_time[38] 	0.00410558346
scalar tree_4_3_u10_r5_network.client[39] 	hdistance[39] 	2.6735082347099
scalar tree_4_3_u10_r5_network.client[39] 	downloads[39] 	12083
scalar tree_4_3_u10_r5_network.client[39] 	avg_time[39] 	0.004189519472
