version 2
run General-6-20160830-13:52:57-31327
attr a 0.9
attr branch 3
attr cd ffc
attr configname General
attr cr lru
attr datetime 20160830-13:52:57
attr experiment General
attr fsize 1
attr inifile hw5115/scenario_E/omnetp.ini
attr iterationvars "$name=tree, $levels=5, $branch=3, $un=10, $rep=1, $cd=ffc, $cr=lru, $fsize=1, $a=0.9, $sl=nrr, $ttl=1000, $variance=0.05"
attr iterationvars2 "$name=tree, $levels=5, $branch=3, $un=10, $rep=1, $cd=ffc, $cr=lru, $fsize=1, $a=0.9, $sl=nrr, $ttl=1000, $variance=0.05, $repetition=0"
attr levels 5
attr measurement "$name=tree, $levels=5, $branch=3, $un=10, $rep=1, $cd=ffc, $cr=lru, $fsize=1, $a=0.9, $sl=nrr, $ttl=1000, $variance=0.05"
attr name tree
attr network networks.${name}_${levels}_${branch}_u${un}_r${rep}_network
attr processid 31327
attr rep 1
attr repetition 0
attr replication #0
attr resultdir results
attr runnumber 6
attr seedset 1
attr sl nrr
attr ttl 1000
attr un 10
attr variance 0.05

scalar . 	a 	0.9
scalar . 	branch 	3
scalar . 	fsize 	1
scalar . 	levels 	5
scalar . 	rep 	1
scalar . 	ttl 	1000
scalar . 	un 	10
scalar . 	variance 	0.05
scalar tree_5_3_u10_r1_network.content_distribution 	repo-0 	0
scalar tree_5_3_u10_r1_network.content_distribution 	client-0 	120
scalar tree_5_3_u10_r1_network.content_distribution 	client-1 	119
scalar tree_5_3_u10_r1_network.content_distribution 	client-2 	118
scalar tree_5_3_u10_r1_network.content_distribution 	client-3 	117
scalar tree_5_3_u10_r1_network.content_distribution 	client-4 	116
scalar tree_5_3_u10_r1_network.content_distribution 	client-5 	115
scalar tree_5_3_u10_r1_network.content_distribution 	client-6 	114
scalar tree_5_3_u10_r1_network.content_distribution 	client-7 	113
scalar tree_5_3_u10_r1_network.content_distribution 	client-8 	112
scalar tree_5_3_u10_r1_network.content_distribution 	client-9 	111
scalar tree_5_3_u10_r1_network.content_distribution 	client-10 	110
scalar tree_5_3_u10_r1_network.content_distribution 	client-11 	109
scalar tree_5_3_u10_r1_network.content_distribution 	client-12 	108
scalar tree_5_3_u10_r1_network.content_distribution 	client-13 	107
scalar tree_5_3_u10_r1_network.content_distribution 	client-14 	106
scalar tree_5_3_u10_r1_network.content_distribution 	client-15 	105
scalar tree_5_3_u10_r1_network.content_distribution 	client-16 	104
scalar tree_5_3_u10_r1_network.content_distribution 	client-17 	103
scalar tree_5_3_u10_r1_network.content_distribution 	client-18 	102
scalar tree_5_3_u10_r1_network.content_distribution 	client-19 	101
scalar tree_5_3_u10_r1_network.content_distribution 	client-20 	100
scalar tree_5_3_u10_r1_network.content_distribution 	client-21 	99
scalar tree_5_3_u10_r1_network.content_distribution 	client-22 	98
scalar tree_5_3_u10_r1_network.content_distribution 	client-23 	97
scalar tree_5_3_u10_r1_network.content_distribution 	client-24 	96
scalar tree_5_3_u10_r1_network.content_distribution 	client-25 	95
scalar tree_5_3_u10_r1_network.content_distribution 	client-26 	94
scalar tree_5_3_u10_r1_network.content_distribution 	client-27 	93
scalar tree_5_3_u10_r1_network.content_distribution 	client-28 	92
scalar tree_5_3_u10_r1_network.content_distribution 	client-29 	91
scalar tree_5_3_u10_r1_network.content_distribution 	client-30 	90
scalar tree_5_3_u10_r1_network.content_distribution 	client-31 	89
scalar tree_5_3_u10_r1_network.content_distribution 	client-32 	88
scalar tree_5_3_u10_r1_network.content_distribution 	client-33 	87
scalar tree_5_3_u10_r1_network.content_distribution 	client-34 	86
scalar tree_5_3_u10_r1_network.content_distribution 	client-35 	85
scalar tree_5_3_u10_r1_network.content_distribution 	client-36 	84
scalar tree_5_3_u10_r1_network.content_distribution 	client-37 	83
scalar tree_5_3_u10_r1_network.content_distribution 	client-38 	82
scalar tree_5_3_u10_r1_network.content_distribution 	client-39 	81
scalar tree_5_3_u10_r1_network.content_distribution 	client-40 	80
scalar tree_5_3_u10_r1_network.content_distribution 	client-41 	79
scalar tree_5_3_u10_r1_network.content_distribution 	client-42 	78
scalar tree_5_3_u10_r1_network.content_distribution 	client-43 	77
scalar tree_5_3_u10_r1_network.content_distribution 	client-44 	76
scalar tree_5_3_u10_r1_network.content_distribution 	client-45 	75
scalar tree_5_3_u10_r1_network.content_distribution 	client-46 	74
scalar tree_5_3_u10_r1_network.content_distribution 	client-47 	73
scalar tree_5_3_u10_r1_network.content_distribution 	client-48 	72
scalar tree_5_3_u10_r1_network.content_distribution 	client-49 	71
scalar tree_5_3_u10_r1_network.content_distribution 	client-50 	70
scalar tree_5_3_u10_r1_network.content_distribution 	client-51 	69
scalar tree_5_3_u10_r1_network.content_distribution 	client-52 	68
scalar tree_5_3_u10_r1_network.content_distribution 	client-53 	67
scalar tree_5_3_u10_r1_network.content_distribution 	client-54 	66
scalar tree_5_3_u10_r1_network.content_distribution 	client-55 	65
scalar tree_5_3_u10_r1_network.content_distribution 	client-56 	64
scalar tree_5_3_u10_r1_network.content_distribution 	client-57 	63
scalar tree_5_3_u10_r1_network.content_distribution 	client-58 	62
scalar tree_5_3_u10_r1_network.content_distribution 	client-59 	61
scalar tree_5_3_u10_r1_network.content_distribution 	client-60 	60
scalar tree_5_3_u10_r1_network.content_distribution 	client-61 	59
scalar tree_5_3_u10_r1_network.content_distribution 	client-62 	58
scalar tree_5_3_u10_r1_network.content_distribution 	client-63 	57
scalar tree_5_3_u10_r1_network.content_distribution 	client-64 	56
scalar tree_5_3_u10_r1_network.content_distribution 	client-65 	55
scalar tree_5_3_u10_r1_network.content_distribution 	client-66 	54
scalar tree_5_3_u10_r1_network.content_distribution 	client-67 	53
scalar tree_5_3_u10_r1_network.content_distribution 	client-68 	52
scalar tree_5_3_u10_r1_network.content_distribution 	client-69 	51
scalar tree_5_3_u10_r1_network.content_distribution 	client-70 	50
scalar tree_5_3_u10_r1_network.content_distribution 	client-71 	49
scalar tree_5_3_u10_r1_network.content_distribution 	client-72 	48
scalar tree_5_3_u10_r1_network.content_distribution 	client-73 	47
scalar tree_5_3_u10_r1_network.content_distribution 	client-74 	46
scalar tree_5_3_u10_r1_network.content_distribution 	client-75 	45
scalar tree_5_3_u10_r1_network.content_distribution 	client-76 	44
scalar tree_5_3_u10_r1_network.content_distribution 	client-77 	43
scalar tree_5_3_u10_r1_network.content_distribution 	client-78 	42
scalar tree_5_3_u10_r1_network.content_distribution 	client-79 	41
scalar tree_5_3_u10_r1_network.content_distribution 	client-80 	40
scalar tree_5_3_u10_r1_network.content_distribution 	repo-0_card 	100000
scalar tree_5_3_u10_r1_network.content_distribution 	repo-0_price 	0
scalar tree_5_3_u10_r1_network.statistics 	stabilization_time 	1196.1
scalar tree_5_3_u10_r1_network.statistics 	p_hit 	0.25352250902107
scalar tree_5_3_u10_r1_network.statistics 	interests 	28998.545454545
scalar tree_5_3_u10_r1_network.statistics 	data 	20965.991735537
scalar tree_5_3_u10_r1_network.statistics 	hdistance 	3.1123701062109
scalar tree_5_3_u10_r1_network.statistics 	avg_time 	0.005220485466
scalar tree_5_3_u10_r1_network.statistics 	downloads 	971925
scalar tree_5_3_u10_r1_network.statistics 	total_cost 	0
scalar tree_5_3_u10_r1_network.statistics 	total_replicas 	100000
scalar tree_5_3_u10_r1_network.statistics 	inner_hit 	0.49796229132906
scalar tree_5_3_u10_r1_network.node[0].core_layer 	interests[0] 	491221
scalar tree_5_3_u10_r1_network.node[0].core_layer 	repo_load[0] 	487943
scalar tree_5_3_u10_r1_network.node[0].core_layer 	data[0] 	0
scalar tree_5_3_u10_r1_network.node[0].core_layer 	repo_int[0] 	487943
scalar tree_5_3_u10_r1_network.node[0].content_store 	p_hit[0] 	0.0066731674745176
scalar tree_5_3_u10_r1_network.node[0].content_store 	hits[0] 	3278
scalar tree_5_3_u10_r1_network.node[0].content_store 	misses[0] 	487943
scalar tree_5_3_u10_r1_network.node[0].content_store 	decision_yes[0] 	1522
scalar tree_5_3_u10_r1_network.node[0].content_store 	decision_no[0] 	486421
scalar tree_5_3_u10_r1_network.node[0].content_store 	decision_ratio[0] 	0.0031192167937648
scalar tree_5_3_u10_r1_network.node[1].core_layer 	interests[1] 	420056
scalar tree_5_3_u10_r1_network.node[1].core_layer 	data[1] 	415572
scalar tree_5_3_u10_r1_network.node[1].content_store 	p_hit[1] 	0.010643818919382
scalar tree_5_3_u10_r1_network.node[1].content_store 	hits[1] 	4471
scalar tree_5_3_u10_r1_network.node[1].content_store 	misses[1] 	415585
scalar tree_5_3_u10_r1_network.node[1].content_store 	decision_yes[1] 	1424
scalar tree_5_3_u10_r1_network.node[1].content_store 	decision_no[1] 	414148
scalar tree_5_3_u10_r1_network.node[1].content_store 	decision_ratio[1] 	0.0034266023697458
scalar tree_5_3_u10_r1_network.node[2].core_layer 	interests[2] 	108261
scalar tree_5_3_u10_r1_network.node[2].core_layer 	data[2] 	102516
scalar tree_5_3_u10_r1_network.node[2].content_store 	p_hit[2] 	0.053038490315072
scalar tree_5_3_u10_r1_network.node[2].content_store 	hits[2] 	5742
scalar tree_5_3_u10_r1_network.node[2].content_store 	misses[2] 	102519
scalar tree_5_3_u10_r1_network.node[2].content_store 	decision_yes[2] 	551
scalar tree_5_3_u10_r1_network.node[2].content_store 	decision_no[2] 	101965
scalar tree_5_3_u10_r1_network.node[2].content_store 	decision_ratio[2] 	0.00537477076749
scalar tree_5_3_u10_r1_network.node[3].core_layer 	interests[3] 	17665
scalar tree_5_3_u10_r1_network.node[3].core_layer 	data[3] 	11845
scalar tree_5_3_u10_r1_network.node[3].content_store 	p_hit[3] 	0.32946504387206
scalar tree_5_3_u10_r1_network.node[3].content_store 	hits[3] 	5820
scalar tree_5_3_u10_r1_network.node[3].content_store 	misses[3] 	11845
scalar tree_5_3_u10_r1_network.node[3].content_store 	decision_yes[3] 	594
scalar tree_5_3_u10_r1_network.node[3].content_store 	decision_no[3] 	11251
scalar tree_5_3_u10_r1_network.node[3].content_store 	decision_ratio[3] 	0.050147741663149
scalar tree_5_3_u10_r1_network.node[4].core_layer 	interests[4] 	137703
scalar tree_5_3_u10_r1_network.node[4].core_layer 	data[4] 	132977
scalar tree_5_3_u10_r1_network.node[4].content_store 	p_hit[4] 	0.034312977930764
scalar tree_5_3_u10_r1_network.node[4].content_store 	hits[4] 	4725
scalar tree_5_3_u10_r1_network.node[4].content_store 	misses[4] 	132978
scalar tree_5_3_u10_r1_network.node[4].content_store 	decision_yes[4] 	673
scalar tree_5_3_u10_r1_network.node[4].content_store 	decision_no[4] 	132304
scalar tree_5_3_u10_r1_network.node[4].content_store 	decision_ratio[4] 	0.0050610255908917
scalar tree_5_3_u10_r1_network.node[5].core_layer 	interests[5] 	63390
scalar tree_5_3_u10_r1_network.node[5].core_layer 	data[5] 	57116
scalar tree_5_3_u10_r1_network.node[5].content_store 	p_hit[5] 	0.098974601672188
scalar tree_5_3_u10_r1_network.node[5].content_store 	hits[5] 	6274
scalar tree_5_3_u10_r1_network.node[5].content_store 	misses[5] 	57116
scalar tree_5_3_u10_r1_network.node[5].content_store 	decision_yes[5] 	641
scalar tree_5_3_u10_r1_network.node[5].content_store 	decision_no[5] 	56475
scalar tree_5_3_u10_r1_network.node[5].content_store 	decision_ratio[5] 	0.011222774704111
scalar tree_5_3_u10_r1_network.node[6].core_layer 	interests[6] 	19198
scalar tree_5_3_u10_r1_network.node[6].core_layer 	data[6] 	13838
scalar tree_5_3_u10_r1_network.node[6].content_store 	p_hit[6] 	0.27919574955725
scalar tree_5_3_u10_r1_network.node[6].content_store 	hits[6] 	5360
scalar tree_5_3_u10_r1_network.node[6].content_store 	misses[6] 	13838
scalar tree_5_3_u10_r1_network.node[6].content_store 	decision_yes[6] 	773
scalar tree_5_3_u10_r1_network.node[6].content_store 	decision_no[6] 	13065
scalar tree_5_3_u10_r1_network.node[6].content_store 	decision_ratio[6] 	0.055860673507732
scalar tree_5_3_u10_r1_network.node[7].core_layer 	interests[7] 	143739
scalar tree_5_3_u10_r1_network.node[7].core_layer 	data[7] 	137571
scalar tree_5_3_u10_r1_network.node[7].content_store 	p_hit[7] 	0.04288328150328
scalar tree_5_3_u10_r1_network.node[7].content_store 	hits[7] 	6164
scalar tree_5_3_u10_r1_network.node[7].content_store 	misses[7] 	137575
scalar tree_5_3_u10_r1_network.node[7].content_store 	decision_yes[7] 	792
scalar tree_5_3_u10_r1_network.node[7].content_store 	decision_no[7] 	136779
scalar tree_5_3_u10_r1_network.node[7].content_store 	decision_ratio[7] 	0.0057570272804588
scalar tree_5_3_u10_r1_network.node[8].core_layer 	interests[8] 	55972
scalar tree_5_3_u10_r1_network.node[8].core_layer 	data[8] 	51334
scalar tree_5_3_u10_r1_network.node[8].content_store 	p_hit[8] 	0.082862860001429
scalar tree_5_3_u10_r1_network.node[8].content_store 	hits[8] 	4638
scalar tree_5_3_u10_r1_network.node[8].content_store 	misses[8] 	51334
scalar tree_5_3_u10_r1_network.node[8].content_store 	decision_yes[8] 	401
scalar tree_5_3_u10_r1_network.node[8].content_store 	decision_no[8] 	50933
scalar tree_5_3_u10_r1_network.node[8].content_store 	decision_ratio[8] 	0.0078115868625083
scalar tree_5_3_u10_r1_network.node[9].core_layer 	interests[9] 	19151
scalar tree_5_3_u10_r1_network.node[9].core_layer 	data[9] 	13936
scalar tree_5_3_u10_r1_network.node[9].content_store 	p_hit[9] 	0.2723095399718
scalar tree_5_3_u10_r1_network.node[9].content_store 	hits[9] 	5215
scalar tree_5_3_u10_r1_network.node[9].content_store 	misses[9] 	13936
scalar tree_5_3_u10_r1_network.node[9].content_store 	decision_yes[9] 	766
scalar tree_5_3_u10_r1_network.node[9].content_store 	decision_no[9] 	13170
scalar tree_5_3_u10_r1_network.node[9].content_store 	decision_ratio[9] 	0.054965556831228
scalar tree_5_3_u10_r1_network.node[10].core_layer 	interests[10] 	142075
scalar tree_5_3_u10_r1_network.node[10].core_layer 	data[10] 	136367
scalar tree_5_3_u10_r1_network.node[10].content_store 	p_hit[10] 	0.04014077071969
scalar tree_5_3_u10_r1_network.node[10].content_store 	hits[10] 	5703
scalar tree_5_3_u10_r1_network.node[10].content_store 	misses[10] 	136372
scalar tree_5_3_u10_r1_network.node[10].content_store 	decision_yes[10] 	818
scalar tree_5_3_u10_r1_network.node[10].content_store 	decision_no[10] 	135549
scalar tree_5_3_u10_r1_network.node[10].content_store 	decision_ratio[10] 	0.0059985187032053
scalar tree_5_3_u10_r1_network.node[11].core_layer 	interests[11] 	60959
scalar tree_5_3_u10_r1_network.node[11].core_layer 	data[11] 	55565
scalar tree_5_3_u10_r1_network.node[11].content_store 	p_hit[11] 	0.088469299037058
scalar tree_5_3_u10_r1_network.node[11].content_store 	hits[11] 	5393
scalar tree_5_3_u10_r1_network.node[11].content_store 	misses[11] 	55566
scalar tree_5_3_u10_r1_network.node[11].content_store 	decision_yes[11] 	575
scalar tree_5_3_u10_r1_network.node[11].content_store 	decision_no[11] 	54990
scalar tree_5_3_u10_r1_network.node[11].content_store 	decision_ratio[11] 	0.010348240799064
scalar tree_5_3_u10_r1_network.node[12].core_layer 	interests[12] 	14561
scalar tree_5_3_u10_r1_network.node[12].core_layer 	data[12] 	10207
scalar tree_5_3_u10_r1_network.node[12].content_store 	p_hit[12] 	0.29901792459309
scalar tree_5_3_u10_r1_network.node[12].content_store 	hits[12] 	4354
scalar tree_5_3_u10_r1_network.node[12].content_store 	misses[12] 	10207
scalar tree_5_3_u10_r1_network.node[12].content_store 	decision_yes[12] 	335
scalar tree_5_3_u10_r1_network.node[12].content_store 	decision_no[12] 	9872
scalar tree_5_3_u10_r1_network.node[12].content_store 	decision_ratio[12] 	0.032820613304595
scalar tree_5_3_u10_r1_network.node[13].core_layer 	interests[13] 	41331
scalar tree_5_3_u10_r1_network.node[13].core_layer 	data[13] 	38175
scalar tree_5_3_u10_r1_network.node[13].content_store 	p_hit[13] 	0.076359149306816
scalar tree_5_3_u10_r1_network.node[13].content_store 	hits[13] 	3156
scalar tree_5_3_u10_r1_network.node[13].content_store 	misses[13] 	38175
scalar tree_5_3_u10_r1_network.node[13].content_store 	decision_yes[13] 	302
scalar tree_5_3_u10_r1_network.node[13].content_store 	decision_no[13] 	37873
scalar tree_5_3_u10_r1_network.node[13].content_store 	decision_ratio[13] 	0.0079109364767518
scalar tree_5_3_u10_r1_network.node[14].core_layer 	interests[14] 	30681
scalar tree_5_3_u10_r1_network.node[14].core_layer 	data[14] 	26310
scalar tree_5_3_u10_r1_network.node[14].content_store 	p_hit[14] 	0.14240083439262
scalar tree_5_3_u10_r1_network.node[14].content_store 	hits[14] 	4369
scalar tree_5_3_u10_r1_network.node[14].content_store 	misses[14] 	26312
scalar tree_5_3_u10_r1_network.node[14].content_store 	decision_yes[14] 	345
scalar tree_5_3_u10_r1_network.node[14].content_store 	decision_no[14] 	25965
scalar tree_5_3_u10_r1_network.node[14].content_store 	decision_ratio[14] 	0.013112884834664
scalar tree_5_3_u10_r1_network.node[15].core_layer 	interests[15] 	15373
scalar tree_5_3_u10_r1_network.node[15].core_layer 	data[15] 	11532
scalar tree_5_3_u10_r1_network.node[15].content_store 	p_hit[15] 	0.24985363949782
scalar tree_5_3_u10_r1_network.node[15].content_store 	hits[15] 	3841
scalar tree_5_3_u10_r1_network.node[15].content_store 	misses[15] 	11532
scalar tree_5_3_u10_r1_network.node[15].content_store 	decision_yes[15] 	424
scalar tree_5_3_u10_r1_network.node[15].content_store 	decision_no[15] 	11108
scalar tree_5_3_u10_r1_network.node[15].content_store 	decision_ratio[15] 	0.036767256330212
scalar tree_5_3_u10_r1_network.node[16].core_layer 	interests[16] 	44843
scalar tree_5_3_u10_r1_network.node[16].core_layer 	data[16] 	40596
scalar tree_5_3_u10_r1_network.node[16].content_store 	p_hit[16] 	0.094663604129965
scalar tree_5_3_u10_r1_network.node[16].content_store 	hits[16] 	4245
scalar tree_5_3_u10_r1_network.node[16].content_store 	misses[16] 	40598
scalar tree_5_3_u10_r1_network.node[16].content_store 	decision_yes[16] 	447
scalar tree_5_3_u10_r1_network.node[16].content_store 	decision_no[16] 	40149
scalar tree_5_3_u10_r1_network.node[16].content_store 	decision_ratio[16] 	0.011010937038132
scalar tree_5_3_u10_r1_network.node[17].core_layer 	interests[17] 	27310
scalar tree_5_3_u10_r1_network.node[17].core_layer 	data[17] 	24380
scalar tree_5_3_u10_r1_network.node[17].content_store 	p_hit[17] 	0.10728670816551
scalar tree_5_3_u10_r1_network.node[17].content_store 	hits[17] 	2930
scalar tree_5_3_u10_r1_network.node[17].content_store 	misses[17] 	24380
scalar tree_5_3_u10_r1_network.node[17].content_store 	decision_yes[17] 	255
scalar tree_5_3_u10_r1_network.node[17].content_store 	decision_no[17] 	24125
scalar tree_5_3_u10_r1_network.node[17].content_store 	decision_ratio[17] 	0.010459392945037
scalar tree_5_3_u10_r1_network.node[18].core_layer 	interests[18] 	15144
scalar tree_5_3_u10_r1_network.node[18].core_layer 	data[18] 	11380
scalar tree_5_3_u10_r1_network.node[18].content_store 	p_hit[18] 	0.24854727945061
scalar tree_5_3_u10_r1_network.node[18].content_store 	hits[18] 	3764
scalar tree_5_3_u10_r1_network.node[18].content_store 	misses[18] 	11380
scalar tree_5_3_u10_r1_network.node[18].content_store 	decision_yes[18] 	417
scalar tree_5_3_u10_r1_network.node[18].content_store 	decision_no[18] 	10963
scalar tree_5_3_u10_r1_network.node[18].content_store 	decision_ratio[18] 	0.036643233743409
scalar tree_5_3_u10_r1_network.node[19].core_layer 	interests[19] 	44439
scalar tree_5_3_u10_r1_network.node[19].core_layer 	data[19] 	40395
scalar tree_5_3_u10_r1_network.node[19].content_store 	p_hit[19] 	0.090956142127411
scalar tree_5_3_u10_r1_network.node[19].content_store 	hits[19] 	4042
scalar tree_5_3_u10_r1_network.node[19].content_store 	misses[19] 	40397
scalar tree_5_3_u10_r1_network.node[19].content_store 	decision_yes[19] 	356
scalar tree_5_3_u10_r1_network.node[19].content_store 	decision_no[19] 	40039
scalar tree_5_3_u10_r1_network.node[19].content_store 	decision_ratio[19] 	0.0088129719024632
scalar tree_5_3_u10_r1_network.node[20].core_layer 	interests[20] 	30150
scalar tree_5_3_u10_r1_network.node[20].core_layer 	data[20] 	26327
scalar tree_5_3_u10_r1_network.node[20].content_store 	p_hit[20] 	0.12686567164179
scalar tree_5_3_u10_r1_network.node[20].content_store 	hits[20] 	3825
scalar tree_5_3_u10_r1_network.node[20].content_store 	misses[20] 	26325
scalar tree_5_3_u10_r1_network.node[20].content_store 	decision_yes[20] 	338
scalar tree_5_3_u10_r1_network.node[20].content_store 	decision_no[20] 	25989
scalar tree_5_3_u10_r1_network.node[20].content_store 	decision_ratio[20] 	0.012838530785885
scalar tree_5_3_u10_r1_network.node[21].core_layer 	interests[21] 	12275
scalar tree_5_3_u10_r1_network.node[21].core_layer 	data[21] 	9416
scalar tree_5_3_u10_r1_network.node[21].content_store 	p_hit[21] 	0.23283095723014
scalar tree_5_3_u10_r1_network.node[21].content_store 	hits[21] 	2858
scalar tree_5_3_u10_r1_network.node[21].content_store 	misses[21] 	9417
scalar tree_5_3_u10_r1_network.node[21].content_store 	decision_yes[21] 	247
scalar tree_5_3_u10_r1_network.node[21].content_store 	decision_no[21] 	9169
scalar tree_5_3_u10_r1_network.node[21].content_store 	decision_ratio[21] 	0.026231945624469
scalar tree_5_3_u10_r1_network.node[22].core_layer 	interests[22] 	42408
scalar tree_5_3_u10_r1_network.node[22].core_layer 	data[22] 	39000
scalar tree_5_3_u10_r1_network.node[22].content_store 	p_hit[22] 	0.080362195812111
scalar tree_5_3_u10_r1_network.node[22].content_store 	hits[22] 	3408
scalar tree_5_3_u10_r1_network.node[22].content_store 	misses[22] 	39000
scalar tree_5_3_u10_r1_network.node[22].content_store 	decision_yes[22] 	301
scalar tree_5_3_u10_r1_network.node[22].content_store 	decision_no[22] 	38699
scalar tree_5_3_u10_r1_network.node[22].content_store 	decision_ratio[22] 	0.0077179487179487
scalar tree_5_3_u10_r1_network.node[23].core_layer 	interests[23] 	29782
scalar tree_5_3_u10_r1_network.node[23].core_layer 	data[23] 	25752
scalar tree_5_3_u10_r1_network.node[23].content_store 	p_hit[23] 	0.13531663420858
scalar tree_5_3_u10_r1_network.node[23].content_store 	hits[23] 	4030
scalar tree_5_3_u10_r1_network.node[23].content_store 	misses[23] 	25752
scalar tree_5_3_u10_r1_network.node[23].content_store 	decision_yes[23] 	373
scalar tree_5_3_u10_r1_network.node[23].content_store 	decision_no[23] 	25379
scalar tree_5_3_u10_r1_network.node[23].content_store 	decision_ratio[23] 	0.014484311898105
scalar tree_5_3_u10_r1_network.node[24].core_layer 	interests[24] 	15227
scalar tree_5_3_u10_r1_network.node[24].core_layer 	data[24] 	11309
scalar tree_5_3_u10_r1_network.node[24].content_store 	p_hit[24] 	0.25730610100479
scalar tree_5_3_u10_r1_network.node[24].content_store 	hits[24] 	3918
scalar tree_5_3_u10_r1_network.node[24].content_store 	misses[24] 	11309
scalar tree_5_3_u10_r1_network.node[24].content_store 	decision_yes[24] 	404
scalar tree_5_3_u10_r1_network.node[24].content_store 	decision_no[24] 	10905
scalar tree_5_3_u10_r1_network.node[24].content_store 	decision_ratio[24] 	0.035723759837298
scalar tree_5_3_u10_r1_network.node[25].core_layer 	interests[25] 	44496
scalar tree_5_3_u10_r1_network.node[25].core_layer 	data[25] 	40380
scalar tree_5_3_u10_r1_network.node[25].content_store 	p_hit[25] 	0.092480222941388
scalar tree_5_3_u10_r1_network.node[25].content_store 	hits[25] 	4115
scalar tree_5_3_u10_r1_network.node[25].content_store 	misses[25] 	40381
scalar tree_5_3_u10_r1_network.node[25].content_store 	decision_yes[25] 	357
scalar tree_5_3_u10_r1_network.node[25].content_store 	decision_no[25] 	40023
scalar tree_5_3_u10_r1_network.node[25].content_store 	decision_ratio[25] 	0.0088410104011887
scalar tree_5_3_u10_r1_network.node[26].core_layer 	interests[26] 	26762
scalar tree_5_3_u10_r1_network.node[26].core_layer 	data[26] 	23778
scalar tree_5_3_u10_r1_network.node[26].content_store 	p_hit[26] 	0.11150138255736
scalar tree_5_3_u10_r1_network.node[26].content_store 	hits[26] 	2984
scalar tree_5_3_u10_r1_network.node[26].content_store 	misses[26] 	23778
scalar tree_5_3_u10_r1_network.node[26].content_store 	decision_yes[26] 	263
scalar tree_5_3_u10_r1_network.node[26].content_store 	decision_no[26] 	23515
scalar tree_5_3_u10_r1_network.node[26].content_store 	decision_ratio[26] 	0.011060644293044
scalar tree_5_3_u10_r1_network.node[27].core_layer 	interests[27] 	15230
scalar tree_5_3_u10_r1_network.node[27].core_layer 	data[27] 	11579
scalar tree_5_3_u10_r1_network.node[27].content_store 	p_hit[27] 	0.23972422849639
scalar tree_5_3_u10_r1_network.node[27].content_store 	hits[27] 	3651
scalar tree_5_3_u10_r1_network.node[27].content_store 	misses[27] 	11579
scalar tree_5_3_u10_r1_network.node[27].content_store 	decision_yes[27] 	392
scalar tree_5_3_u10_r1_network.node[27].content_store 	decision_no[27] 	11187
scalar tree_5_3_u10_r1_network.node[27].content_store 	decision_ratio[27] 	0.033854391570947
scalar tree_5_3_u10_r1_network.node[28].core_layer 	interests[28] 	44568
scalar tree_5_3_u10_r1_network.node[28].core_layer 	data[28] 	40373
scalar tree_5_3_u10_r1_network.node[28].content_store 	p_hit[28] 	0.094103392568659
scalar tree_5_3_u10_r1_network.node[28].content_store 	hits[28] 	4194
scalar tree_5_3_u10_r1_network.node[28].content_store 	misses[28] 	40374
scalar tree_5_3_u10_r1_network.node[28].content_store 	decision_yes[28] 	381
scalar tree_5_3_u10_r1_network.node[28].content_store 	decision_no[28] 	39992
scalar tree_5_3_u10_r1_network.node[28].content_store 	decision_ratio[28] 	0.009436999975231
scalar tree_5_3_u10_r1_network.node[29].core_layer 	interests[29] 	29279
scalar tree_5_3_u10_r1_network.node[29].core_layer 	data[29] 	25674
scalar tree_5_3_u10_r1_network.node[29].content_store 	p_hit[29] 	0.12312578981523
scalar tree_5_3_u10_r1_network.node[29].content_store 	hits[29] 	3605
scalar tree_5_3_u10_r1_network.node[29].content_store 	misses[29] 	25674
scalar tree_5_3_u10_r1_network.node[29].content_store 	decision_yes[29] 	320
scalar tree_5_3_u10_r1_network.node[29].content_store 	decision_no[29] 	25354
scalar tree_5_3_u10_r1_network.node[29].content_store 	decision_ratio[29] 	0.012463971332866
scalar tree_5_3_u10_r1_network.node[30].core_layer 	interests[30] 	12336
scalar tree_5_3_u10_r1_network.node[30].core_layer 	data[30] 	9387
scalar tree_5_3_u10_r1_network.node[30].content_store 	p_hit[30] 	0.23905642023346
scalar tree_5_3_u10_r1_network.node[30].content_store 	hits[30] 	2949
scalar tree_5_3_u10_r1_network.node[30].content_store 	misses[30] 	9387
scalar tree_5_3_u10_r1_network.node[30].content_store 	decision_yes[30] 	254
scalar tree_5_3_u10_r1_network.node[30].content_store 	decision_no[30] 	9133
scalar tree_5_3_u10_r1_network.node[30].content_store 	decision_ratio[30] 	0.027058698199638
scalar tree_5_3_u10_r1_network.node[31].core_layer 	interests[31] 	41970
scalar tree_5_3_u10_r1_network.node[31].core_layer 	data[31] 	38690
scalar tree_5_3_u10_r1_network.node[31].content_store 	p_hit[31] 	0.078127233738385
scalar tree_5_3_u10_r1_network.node[31].content_store 	hits[31] 	3279
scalar tree_5_3_u10_r1_network.node[31].content_store 	misses[31] 	38691
scalar tree_5_3_u10_r1_network.node[31].content_store 	decision_yes[31] 	315
scalar tree_5_3_u10_r1_network.node[31].content_store 	decision_no[31] 	38375
scalar tree_5_3_u10_r1_network.node[31].content_store 	decision_ratio[31] 	0.008141638666322
scalar tree_5_3_u10_r1_network.node[32].core_layer 	interests[32] 	29986
scalar tree_5_3_u10_r1_network.node[32].core_layer 	data[32] 	25995
scalar tree_5_3_u10_r1_network.node[32].content_store 	p_hit[32] 	0.13306209564463
scalar tree_5_3_u10_r1_network.node[32].content_store 	hits[32] 	3990
scalar tree_5_3_u10_r1_network.node[32].content_store 	misses[32] 	25996
scalar tree_5_3_u10_r1_network.node[32].content_store 	decision_yes[32] 	370
scalar tree_5_3_u10_r1_network.node[32].content_store 	decision_no[32] 	25625
scalar tree_5_3_u10_r1_network.node[32].content_store 	decision_ratio[32] 	0.014233506443547
scalar tree_5_3_u10_r1_network.node[33].core_layer 	interests[33] 	14322
scalar tree_5_3_u10_r1_network.node[33].core_layer 	data[33] 	10675
scalar tree_5_3_u10_r1_network.node[33].content_store 	p_hit[33] 	0.25464320625611
scalar tree_5_3_u10_r1_network.node[33].content_store 	hits[33] 	3647
scalar tree_5_3_u10_r1_network.node[33].content_store 	misses[33] 	10675
scalar tree_5_3_u10_r1_network.node[33].content_store 	decision_yes[33] 	390
scalar tree_5_3_u10_r1_network.node[33].content_store 	decision_no[33] 	10285
scalar tree_5_3_u10_r1_network.node[33].content_store 	decision_ratio[33] 	0.036533957845433
scalar tree_5_3_u10_r1_network.node[34].core_layer 	interests[34] 	44560
scalar tree_5_3_u10_r1_network.node[34].core_layer 	data[34] 	40460
scalar tree_5_3_u10_r1_network.node[34].content_store 	p_hit[34] 	0.091965888689408
scalar tree_5_3_u10_r1_network.node[34].content_store 	hits[34] 	4098
scalar tree_5_3_u10_r1_network.node[34].content_store 	misses[34] 	40462
scalar tree_5_3_u10_r1_network.node[34].content_store 	decision_yes[34] 	367
scalar tree_5_3_u10_r1_network.node[34].content_store 	decision_no[34] 	40093
scalar tree_5_3_u10_r1_network.node[34].content_store 	decision_ratio[34] 	0.0090706870983688
scalar tree_5_3_u10_r1_network.node[35].core_layer 	interests[35] 	26899
scalar tree_5_3_u10_r1_network.node[35].core_layer 	data[35] 	23856
scalar tree_5_3_u10_r1_network.node[35].content_store 	p_hit[35] 	0.11312688204022
scalar tree_5_3_u10_r1_network.node[35].content_store 	hits[35] 	3043
scalar tree_5_3_u10_r1_network.node[35].content_store 	misses[35] 	23856
scalar tree_5_3_u10_r1_network.node[35].content_store 	decision_yes[35] 	237
scalar tree_5_3_u10_r1_network.node[35].content_store 	decision_no[35] 	23619
scalar tree_5_3_u10_r1_network.node[35].content_store 	decision_ratio[35] 	0.0099346076458753
scalar tree_5_3_u10_r1_network.node[36].core_layer 	interests[36] 	14460
scalar tree_5_3_u10_r1_network.node[36].core_layer 	data[36] 	10858
scalar tree_5_3_u10_r1_network.node[36].content_store 	p_hit[36] 	0.24903181189488
scalar tree_5_3_u10_r1_network.node[36].content_store 	hits[36] 	3601
scalar tree_5_3_u10_r1_network.node[36].content_store 	misses[36] 	10859
scalar tree_5_3_u10_r1_network.node[36].content_store 	decision_yes[36] 	408
scalar tree_5_3_u10_r1_network.node[36].content_store 	decision_no[36] 	10450
scalar tree_5_3_u10_r1_network.node[36].content_store 	decision_ratio[36] 	0.037575980843618
scalar tree_5_3_u10_r1_network.node[37].core_layer 	interests[37] 	43933
scalar tree_5_3_u10_r1_network.node[37].core_layer 	data[37] 	40013
scalar tree_5_3_u10_r1_network.node[37].content_store 	p_hit[37] 	0.089204015204971
scalar tree_5_3_u10_r1_network.node[37].content_store 	hits[37] 	3919
scalar tree_5_3_u10_r1_network.node[37].content_store 	misses[37] 	40014
scalar tree_5_3_u10_r1_network.node[37].content_store 	decision_yes[37] 	429
scalar tree_5_3_u10_r1_network.node[37].content_store 	decision_no[37] 	39584
scalar tree_5_3_u10_r1_network.node[37].content_store 	decision_ratio[37] 	0.01072151550746
scalar tree_5_3_u10_r1_network.node[38].core_layer 	interests[38] 	29485
scalar tree_5_3_u10_r1_network.node[38].core_layer 	data[38] 	26027
scalar tree_5_3_u10_r1_network.node[38].content_store 	p_hit[38] 	0.11727997286756
scalar tree_5_3_u10_r1_network.node[38].content_store 	hits[38] 	3458
scalar tree_5_3_u10_r1_network.node[38].content_store 	misses[38] 	26027
scalar tree_5_3_u10_r1_network.node[38].content_store 	decision_yes[38] 	324
scalar tree_5_3_u10_r1_network.node[38].content_store 	decision_no[38] 	25703
scalar tree_5_3_u10_r1_network.node[38].content_store 	decision_ratio[38] 	0.012448611057748
scalar tree_5_3_u10_r1_network.node[39].core_layer 	interests[39] 	12141
scalar tree_5_3_u10_r1_network.node[39].core_layer 	data[39] 	9263
scalar tree_5_3_u10_r1_network.node[39].content_store 	p_hit[39] 	0.2370480191088
scalar tree_5_3_u10_r1_network.node[39].content_store 	hits[39] 	2878
scalar tree_5_3_u10_r1_network.node[39].content_store 	misses[39] 	9263
scalar tree_5_3_u10_r1_network.node[39].content_store 	decision_yes[39] 	230
scalar tree_5_3_u10_r1_network.node[39].content_store 	decision_no[39] 	9033
scalar tree_5_3_u10_r1_network.node[39].content_store 	decision_ratio[39] 	0.024829968692648
scalar tree_5_3_u10_r1_network.node[40].core_layer 	interests[40] 	12436
scalar tree_5_3_u10_r1_network.node[40].core_layer 	data[40] 	8817
scalar tree_5_3_u10_r1_network.node[40].content_store 	p_hit[40] 	0.29092955934384
scalar tree_5_3_u10_r1_network.node[40].content_store 	hits[40] 	3618
scalar tree_5_3_u10_r1_network.node[40].content_store 	misses[40] 	8818
scalar tree_5_3_u10_r1_network.node[40].content_store 	decision_yes[40] 	146
scalar tree_5_3_u10_r1_network.node[40].content_store 	decision_no[40] 	8671
scalar tree_5_3_u10_r1_network.node[40].content_store 	decision_ratio[40] 	0.016558920267665
scalar tree_5_3_u10_r1_network.node[41].core_layer 	interests[41] 	13021
scalar tree_5_3_u10_r1_network.node[41].core_layer 	data[41] 	8900
scalar tree_5_3_u10_r1_network.node[41].content_store 	p_hit[41] 	0.31656554796099
scalar tree_5_3_u10_r1_network.node[41].content_store 	hits[41] 	4122
scalar tree_5_3_u10_r1_network.node[41].content_store 	misses[41] 	8899
scalar tree_5_3_u10_r1_network.node[41].content_store 	decision_yes[41] 	181
scalar tree_5_3_u10_r1_network.node[41].content_store 	decision_no[41] 	8719
scalar tree_5_3_u10_r1_network.node[41].content_store 	decision_ratio[41] 	0.020337078651685
scalar tree_5_3_u10_r1_network.node[42].core_layer 	interests[42] 	12923
scalar tree_5_3_u10_r1_network.node[42].core_layer 	data[42] 	8845
scalar tree_5_3_u10_r1_network.node[42].content_store 	p_hit[42] 	0.31548402073822
scalar tree_5_3_u10_r1_network.node[42].content_store 	hits[42] 	4077
scalar tree_5_3_u10_r1_network.node[42].content_store 	misses[42] 	8846
scalar tree_5_3_u10_r1_network.node[42].content_store 	decision_yes[42] 	152
scalar tree_5_3_u10_r1_network.node[42].content_store 	decision_no[42] 	8693
scalar tree_5_3_u10_r1_network.node[42].content_store 	decision_ratio[42] 	0.017184850197852
scalar tree_5_3_u10_r1_network.node[43].core_layer 	interests[43] 	13174
scalar tree_5_3_u10_r1_network.node[43].core_layer 	data[43] 	8967
scalar tree_5_3_u10_r1_network.node[43].content_store 	p_hit[43] 	0.31934112646121
scalar tree_5_3_u10_r1_network.node[43].content_store 	hits[43] 	4207
scalar tree_5_3_u10_r1_network.node[43].content_store 	misses[43] 	8967
scalar tree_5_3_u10_r1_network.node[43].content_store 	decision_yes[43] 	158
scalar tree_5_3_u10_r1_network.node[43].content_store 	decision_no[43] 	8809
scalar tree_5_3_u10_r1_network.node[43].content_store 	decision_ratio[43] 	0.017620162819226
scalar tree_5_3_u10_r1_network.node[44].core_layer 	interests[44] 	12370
scalar tree_5_3_u10_r1_network.node[44].core_layer 	data[44] 	8755
scalar tree_5_3_u10_r1_network.node[44].content_store 	p_hit[44] 	0.29223928860146
scalar tree_5_3_u10_r1_network.node[44].content_store 	hits[44] 	3615
scalar tree_5_3_u10_r1_network.node[44].content_store 	misses[44] 	8755
scalar tree_5_3_u10_r1_network.node[44].content_store 	decision_yes[44] 	138
scalar tree_5_3_u10_r1_network.node[44].content_store 	decision_no[44] 	8617
scalar tree_5_3_u10_r1_network.node[44].content_store 	decision_ratio[44] 	0.015762421473444
scalar tree_5_3_u10_r1_network.node[45].core_layer 	interests[45] 	13101
scalar tree_5_3_u10_r1_network.node[45].core_layer 	data[45] 	8963
scalar tree_5_3_u10_r1_network.node[45].content_store 	p_hit[45] 	0.31570109151973
scalar tree_5_3_u10_r1_network.node[45].content_store 	hits[45] 	4136
scalar tree_5_3_u10_r1_network.node[45].content_store 	misses[45] 	8965
scalar tree_5_3_u10_r1_network.node[45].content_store 	decision_yes[45] 	153
scalar tree_5_3_u10_r1_network.node[45].content_store 	decision_no[45] 	8810
scalar tree_5_3_u10_r1_network.node[45].content_store 	decision_ratio[45] 	0.017070177395961
scalar tree_5_3_u10_r1_network.node[46].core_layer 	interests[46] 	12982
scalar tree_5_3_u10_r1_network.node[46].core_layer 	data[46] 	9015
scalar tree_5_3_u10_r1_network.node[46].content_store 	p_hit[46] 	0.30557695270374
scalar tree_5_3_u10_r1_network.node[46].content_store 	hits[46] 	3967
scalar tree_5_3_u10_r1_network.node[46].content_store 	misses[46] 	9015
scalar tree_5_3_u10_r1_network.node[46].content_store 	decision_yes[46] 	152
scalar tree_5_3_u10_r1_network.node[46].content_store 	decision_no[46] 	8863
scalar tree_5_3_u10_r1_network.node[46].content_store 	decision_ratio[46] 	0.016860787576262
scalar tree_5_3_u10_r1_network.node[47].core_layer 	interests[47] 	13121
scalar tree_5_3_u10_r1_network.node[47].core_layer 	data[47] 	8863
scalar tree_5_3_u10_r1_network.node[47].content_store 	p_hit[47] 	0.32451794832711
scalar tree_5_3_u10_r1_network.node[47].content_store 	hits[47] 	4258
scalar tree_5_3_u10_r1_network.node[47].content_store 	misses[47] 	8863
scalar tree_5_3_u10_r1_network.node[47].content_store 	decision_yes[47] 	123
scalar tree_5_3_u10_r1_network.node[47].content_store 	decision_no[47] 	8740
scalar tree_5_3_u10_r1_network.node[47].content_store 	decision_ratio[47] 	0.01387791944037
scalar tree_5_3_u10_r1_network.node[48].core_layer 	interests[48] 	12258
scalar tree_5_3_u10_r1_network.node[48].core_layer 	data[48] 	8751
scalar tree_5_3_u10_r1_network.node[48].content_store 	p_hit[48] 	0.2860988742046
scalar tree_5_3_u10_r1_network.node[48].content_store 	hits[48] 	3507
scalar tree_5_3_u10_r1_network.node[48].content_store 	misses[48] 	8751
scalar tree_5_3_u10_r1_network.node[48].content_store 	decision_yes[48] 	156
scalar tree_5_3_u10_r1_network.node[48].content_store 	decision_no[48] 	8595
scalar tree_5_3_u10_r1_network.node[48].content_store 	decision_ratio[48] 	0.017826534110387
scalar tree_5_3_u10_r1_network.node[49].core_layer 	interests[49] 	12474
scalar tree_5_3_u10_r1_network.node[49].core_layer 	data[49] 	8676
scalar tree_5_3_u10_r1_network.node[49].content_store 	p_hit[49] 	0.3044733044733
scalar tree_5_3_u10_r1_network.node[49].content_store 	hits[49] 	3798
scalar tree_5_3_u10_r1_network.node[49].content_store 	misses[49] 	8676
scalar tree_5_3_u10_r1_network.node[49].content_store 	decision_yes[49] 	138
scalar tree_5_3_u10_r1_network.node[49].content_store 	decision_no[49] 	8538
scalar tree_5_3_u10_r1_network.node[49].content_store 	decision_ratio[49] 	0.015905947441217
scalar tree_5_3_u10_r1_network.node[50].core_layer 	interests[50] 	13149
scalar tree_5_3_u10_r1_network.node[50].core_layer 	data[50] 	9007
scalar tree_5_3_u10_r1_network.node[50].content_store 	p_hit[50] 	0.3150049433417
scalar tree_5_3_u10_r1_network.node[50].content_store 	hits[50] 	4142
scalar tree_5_3_u10_r1_network.node[50].content_store 	misses[50] 	9007
scalar tree_5_3_u10_r1_network.node[50].content_store 	decision_yes[50] 	166
scalar tree_5_3_u10_r1_network.node[50].content_store 	decision_no[50] 	8841
scalar tree_5_3_u10_r1_network.node[50].content_store 	decision_ratio[50] 	0.018430109914511
scalar tree_5_3_u10_r1_network.node[51].core_layer 	interests[51] 	13137
scalar tree_5_3_u10_r1_network.node[51].core_layer 	data[51] 	8916
scalar tree_5_3_u10_r1_network.node[51].content_store 	p_hit[51] 	0.32130623430007
scalar tree_5_3_u10_r1_network.node[51].content_store 	hits[51] 	4221
scalar tree_5_3_u10_r1_network.node[51].content_store 	misses[51] 	8916
scalar tree_5_3_u10_r1_network.node[51].content_store 	decision_yes[51] 	169
scalar tree_5_3_u10_r1_network.node[51].content_store 	decision_no[51] 	8747
scalar tree_5_3_u10_r1_network.node[51].content_store 	decision_ratio[51] 	0.018954688200987
scalar tree_5_3_u10_r1_network.node[52].core_layer 	interests[52] 	13028
scalar tree_5_3_u10_r1_network.node[52].core_layer 	data[52] 	8848
scalar tree_5_3_u10_r1_network.node[52].content_store 	p_hit[52] 	0.3209241633405
scalar tree_5_3_u10_r1_network.node[52].content_store 	hits[52] 	4181
scalar tree_5_3_u10_r1_network.node[52].content_store 	misses[52] 	8847
scalar tree_5_3_u10_r1_network.node[52].content_store 	decision_yes[52] 	171
scalar tree_5_3_u10_r1_network.node[52].content_store 	decision_no[52] 	8677
scalar tree_5_3_u10_r1_network.node[52].content_store 	decision_ratio[52] 	0.019326401446655
scalar tree_5_3_u10_r1_network.node[53].core_layer 	interests[53] 	12533
scalar tree_5_3_u10_r1_network.node[53].core_layer 	data[53] 	8925
scalar tree_5_3_u10_r1_network.node[53].content_store 	p_hit[53] 	0.28780020745233
scalar tree_5_3_u10_r1_network.node[53].content_store 	hits[53] 	3607
scalar tree_5_3_u10_r1_network.node[53].content_store 	misses[53] 	8926
scalar tree_5_3_u10_r1_network.node[53].content_store 	decision_yes[53] 	157
scalar tree_5_3_u10_r1_network.node[53].content_store 	decision_no[53] 	8768
scalar tree_5_3_u10_r1_network.node[53].content_store 	decision_ratio[53] 	0.017591036414566
scalar tree_5_3_u10_r1_network.node[54].core_layer 	interests[54] 	13003
scalar tree_5_3_u10_r1_network.node[54].core_layer 	data[54] 	8961
scalar tree_5_3_u10_r1_network.node[54].content_store 	p_hit[54] 	0.310851341998
scalar tree_5_3_u10_r1_network.node[54].content_store 	hits[54] 	4042
scalar tree_5_3_u10_r1_network.node[54].content_store 	misses[54] 	8961
scalar tree_5_3_u10_r1_network.node[54].content_store 	decision_yes[54] 	155
scalar tree_5_3_u10_r1_network.node[54].content_store 	decision_no[54] 	8806
scalar tree_5_3_u10_r1_network.node[54].content_store 	decision_ratio[54] 	0.017297176654391
scalar tree_5_3_u10_r1_network.node[55].core_layer 	interests[55] 	13010
scalar tree_5_3_u10_r1_network.node[55].core_layer 	data[55] 	8959
scalar tree_5_3_u10_r1_network.node[55].content_store 	p_hit[55] 	0.31137586471945
scalar tree_5_3_u10_r1_network.node[55].content_store 	hits[55] 	4051
scalar tree_5_3_u10_r1_network.node[55].content_store 	misses[55] 	8959
scalar tree_5_3_u10_r1_network.node[55].content_store 	decision_yes[55] 	163
scalar tree_5_3_u10_r1_network.node[55].content_store 	decision_no[55] 	8796
scalar tree_5_3_u10_r1_network.node[55].content_store 	decision_ratio[55] 	0.018193994865498
scalar tree_5_3_u10_r1_network.node[56].core_layer 	interests[56] 	12853
scalar tree_5_3_u10_r1_network.node[56].core_layer 	data[56] 	8836
scalar tree_5_3_u10_r1_network.node[56].content_store 	p_hit[56] 	0.31268964444099
scalar tree_5_3_u10_r1_network.node[56].content_store 	hits[56] 	4019
scalar tree_5_3_u10_r1_network.node[56].content_store 	misses[56] 	8834
scalar tree_5_3_u10_r1_network.node[56].content_store 	decision_yes[56] 	138
scalar tree_5_3_u10_r1_network.node[56].content_store 	decision_no[56] 	8698
scalar tree_5_3_u10_r1_network.node[56].content_store 	decision_ratio[56] 	0.015617926663649
scalar tree_5_3_u10_r1_network.node[57].core_layer 	interests[57] 	12513
scalar tree_5_3_u10_r1_network.node[57].core_layer 	data[57] 	8898
scalar tree_5_3_u10_r1_network.node[57].content_store 	p_hit[57] 	0.28881962758731
scalar tree_5_3_u10_r1_network.node[57].content_store 	hits[57] 	3614
scalar tree_5_3_u10_r1_network.node[57].content_store 	misses[57] 	8899
scalar tree_5_3_u10_r1_network.node[57].content_store 	decision_yes[57] 	153
scalar tree_5_3_u10_r1_network.node[57].content_store 	decision_no[57] 	8745
scalar tree_5_3_u10_r1_network.node[57].content_store 	decision_ratio[57] 	0.017194875252866
scalar tree_5_3_u10_r1_network.node[58].core_layer 	interests[58] 	12557
scalar tree_5_3_u10_r1_network.node[58].core_layer 	data[58] 	8862
scalar tree_5_3_u10_r1_network.node[58].content_store 	p_hit[58] 	0.29425818268695
scalar tree_5_3_u10_r1_network.node[58].content_store 	hits[58] 	3695
scalar tree_5_3_u10_r1_network.node[58].content_store 	misses[58] 	8862
scalar tree_5_3_u10_r1_network.node[58].content_store 	decision_yes[58] 	154
scalar tree_5_3_u10_r1_network.node[58].content_store 	decision_no[58] 	8708
scalar tree_5_3_u10_r1_network.node[58].content_store 	decision_ratio[58] 	0.0173775671406
scalar tree_5_3_u10_r1_network.node[59].core_layer 	interests[59] 	12912
scalar tree_5_3_u10_r1_network.node[59].core_layer 	data[59] 	8878
scalar tree_5_3_u10_r1_network.node[59].content_store 	p_hit[59] 	0.31242255266419
scalar tree_5_3_u10_r1_network.node[59].content_store 	hits[59] 	4034
scalar tree_5_3_u10_r1_network.node[59].content_store 	misses[59] 	8878
scalar tree_5_3_u10_r1_network.node[59].content_store 	decision_yes[59] 	152
scalar tree_5_3_u10_r1_network.node[59].content_store 	decision_no[59] 	8726
scalar tree_5_3_u10_r1_network.node[59].content_store 	decision_ratio[59] 	0.01712097319216
scalar tree_5_3_u10_r1_network.node[60].core_layer 	interests[60] 	13069
scalar tree_5_3_u10_r1_network.node[60].core_layer 	data[60] 	8990
scalar tree_5_3_u10_r1_network.node[60].content_store 	p_hit[60] 	0.3121126329482
scalar tree_5_3_u10_r1_network.node[60].content_store 	hits[60] 	4079
scalar tree_5_3_u10_r1_network.node[60].content_store 	misses[60] 	8990
scalar tree_5_3_u10_r1_network.node[60].content_store 	decision_yes[60] 	141
scalar tree_5_3_u10_r1_network.node[60].content_store 	decision_no[60] 	8849
scalar tree_5_3_u10_r1_network.node[60].content_store 	decision_ratio[60] 	0.015684093437152
scalar tree_5_3_u10_r1_network.node[61].core_layer 	interests[61] 	12915
scalar tree_5_3_u10_r1_network.node[61].core_layer 	data[61] 	8818
scalar tree_5_3_u10_r1_network.node[61].content_store 	p_hit[61] 	0.31722802942315
scalar tree_5_3_u10_r1_network.node[61].content_store 	hits[61] 	4097
scalar tree_5_3_u10_r1_network.node[61].content_store 	misses[61] 	8818
scalar tree_5_3_u10_r1_network.node[61].content_store 	decision_yes[61] 	165
scalar tree_5_3_u10_r1_network.node[61].content_store 	decision_no[61] 	8653
scalar tree_5_3_u10_r1_network.node[61].content_store 	decision_ratio[61] 	0.018711726014969
scalar tree_5_3_u10_r1_network.node[62].core_layer 	interests[62] 	12469
scalar tree_5_3_u10_r1_network.node[62].core_layer 	data[62] 	8855
scalar tree_5_3_u10_r1_network.node[62].content_store 	p_hit[62] 	0.28983880022456
scalar tree_5_3_u10_r1_network.node[62].content_store 	hits[62] 	3614
scalar tree_5_3_u10_r1_network.node[62].content_store 	misses[62] 	8855
scalar tree_5_3_u10_r1_network.node[62].content_store 	decision_yes[62] 	122
scalar tree_5_3_u10_r1_network.node[62].content_store 	decision_no[62] 	8733
scalar tree_5_3_u10_r1_network.node[62].content_store 	decision_ratio[62] 	0.013777526821005
scalar tree_5_3_u10_r1_network.node[63].core_layer 	interests[63] 	12881
scalar tree_5_3_u10_r1_network.node[63].core_layer 	data[63] 	8885
scalar tree_5_3_u10_r1_network.node[63].content_store 	p_hit[63] 	0.31022436146262
scalar tree_5_3_u10_r1_network.node[63].content_store 	hits[63] 	3996
scalar tree_5_3_u10_r1_network.node[63].content_store 	misses[63] 	8885
scalar tree_5_3_u10_r1_network.node[63].content_store 	decision_yes[63] 	132
scalar tree_5_3_u10_r1_network.node[63].content_store 	decision_no[63] 	8753
scalar tree_5_3_u10_r1_network.node[63].content_store 	decision_ratio[63] 	0.014856499718627
scalar tree_5_3_u10_r1_network.node[64].core_layer 	interests[64] 	13259
scalar tree_5_3_u10_r1_network.node[64].core_layer 	data[64] 	9097
scalar tree_5_3_u10_r1_network.node[64].content_store 	p_hit[64] 	0.31389999245795
scalar tree_5_3_u10_r1_network.node[64].content_store 	hits[64] 	4162
scalar tree_5_3_u10_r1_network.node[64].content_store 	misses[64] 	9097
scalar tree_5_3_u10_r1_network.node[64].content_store 	decision_yes[64] 	158
scalar tree_5_3_u10_r1_network.node[64].content_store 	decision_no[64] 	8939
scalar tree_5_3_u10_r1_network.node[64].content_store 	decision_ratio[64] 	0.017368363196658
scalar tree_5_3_u10_r1_network.node[65].core_layer 	interests[65] 	12872
scalar tree_5_3_u10_r1_network.node[65].core_layer 	data[65] 	8888
scalar tree_5_3_u10_r1_network.node[65].content_store 	p_hit[65] 	0.30966438781852
scalar tree_5_3_u10_r1_network.node[65].content_store 	hits[65] 	3986
scalar tree_5_3_u10_r1_network.node[65].content_store 	misses[65] 	8886
scalar tree_5_3_u10_r1_network.node[65].content_store 	decision_yes[65] 	122
scalar tree_5_3_u10_r1_network.node[65].content_store 	decision_no[65] 	8766
scalar tree_5_3_u10_r1_network.node[65].content_store 	decision_ratio[65] 	0.013726372637264
scalar tree_5_3_u10_r1_network.node[66].core_layer 	interests[66] 	12266
scalar tree_5_3_u10_r1_network.node[66].core_layer 	data[66] 	8817
scalar tree_5_3_u10_r1_network.node[66].content_store 	p_hit[66] 	0.28110223381706
scalar tree_5_3_u10_r1_network.node[66].content_store 	hits[66] 	3448
scalar tree_5_3_u10_r1_network.node[66].content_store 	misses[66] 	8818
scalar tree_5_3_u10_r1_network.node[66].content_store 	decision_yes[66] 	136
scalar tree_5_3_u10_r1_network.node[66].content_store 	decision_no[66] 	8681
scalar tree_5_3_u10_r1_network.node[66].content_store 	decision_ratio[66] 	0.015424747646592
scalar tree_5_3_u10_r1_network.node[67].core_layer 	interests[67] 	12436
scalar tree_5_3_u10_r1_network.node[67].core_layer 	data[67] 	8758
scalar tree_5_3_u10_r1_network.node[67].content_store 	p_hit[67] 	0.29575426182052
scalar tree_5_3_u10_r1_network.node[67].content_store 	hits[67] 	3678
scalar tree_5_3_u10_r1_network.node[67].content_store 	misses[67] 	8758
scalar tree_5_3_u10_r1_network.node[67].content_store 	decision_yes[67] 	124
scalar tree_5_3_u10_r1_network.node[67].content_store 	decision_no[67] 	8634
scalar tree_5_3_u10_r1_network.node[67].content_store 	decision_ratio[67] 	0.014158483672071
scalar tree_5_3_u10_r1_network.node[68].core_layer 	interests[68] 	13115
scalar tree_5_3_u10_r1_network.node[68].core_layer 	data[68] 	8939
scalar tree_5_3_u10_r1_network.node[68].content_store 	p_hit[68] 	0.31841402973694
scalar tree_5_3_u10_r1_network.node[68].content_store 	hits[68] 	4176
scalar tree_5_3_u10_r1_network.node[68].content_store 	misses[68] 	8939
scalar tree_5_3_u10_r1_network.node[68].content_store 	decision_yes[68] 	172
scalar tree_5_3_u10_r1_network.node[68].content_store 	decision_no[68] 	8767
scalar tree_5_3_u10_r1_network.node[68].content_store 	decision_ratio[68] 	0.019241525897751
scalar tree_5_3_u10_r1_network.node[69].core_layer 	interests[69] 	13019
scalar tree_5_3_u10_r1_network.node[69].core_layer 	data[69] 	8974
scalar tree_5_3_u10_r1_network.node[69].content_store 	p_hit[69] 	0.31069974652431
scalar tree_5_3_u10_r1_network.node[69].content_store 	hits[69] 	4045
scalar tree_5_3_u10_r1_network.node[69].content_store 	misses[69] 	8974
scalar tree_5_3_u10_r1_network.node[69].content_store 	decision_yes[69] 	157
scalar tree_5_3_u10_r1_network.node[69].content_store 	decision_no[69] 	8817
scalar tree_5_3_u10_r1_network.node[69].content_store 	decision_ratio[69] 	0.017494985513706
scalar tree_5_3_u10_r1_network.node[70].core_layer 	interests[70] 	12964
scalar tree_5_3_u10_r1_network.node[70].core_layer 	data[70] 	8756
scalar tree_5_3_u10_r1_network.node[70].content_store 	p_hit[70] 	0.3245911755631
scalar tree_5_3_u10_r1_network.node[70].content_store 	hits[70] 	4208
scalar tree_5_3_u10_r1_network.node[70].content_store 	misses[70] 	8756
scalar tree_5_3_u10_r1_network.node[70].content_store 	decision_yes[70] 	157
scalar tree_5_3_u10_r1_network.node[70].content_store 	decision_no[70] 	8599
scalar tree_5_3_u10_r1_network.node[70].content_store 	decision_ratio[70] 	0.017930561900411
scalar tree_5_3_u10_r1_network.node[71].core_layer 	interests[71] 	12559
scalar tree_5_3_u10_r1_network.node[71].core_layer 	data[71] 	8911
scalar tree_5_3_u10_r1_network.node[71].content_store 	p_hit[71] 	0.29046898638427
scalar tree_5_3_u10_r1_network.node[71].content_store 	hits[71] 	3648
scalar tree_5_3_u10_r1_network.node[71].content_store 	misses[71] 	8911
scalar tree_5_3_u10_r1_network.node[71].content_store 	decision_yes[71] 	157
scalar tree_5_3_u10_r1_network.node[71].content_store 	decision_no[71] 	8754
scalar tree_5_3_u10_r1_network.node[71].content_store 	decision_ratio[71] 	0.017618673549546
scalar tree_5_3_u10_r1_network.node[72].core_layer 	interests[72] 	12905
scalar tree_5_3_u10_r1_network.node[72].core_layer 	data[72] 	8771
scalar tree_5_3_u10_r1_network.node[72].content_store 	p_hit[72] 	0.32034095311895
scalar tree_5_3_u10_r1_network.node[72].content_store 	hits[72] 	4134
scalar tree_5_3_u10_r1_network.node[72].content_store 	misses[72] 	8771
scalar tree_5_3_u10_r1_network.node[72].content_store 	decision_yes[72] 	149
scalar tree_5_3_u10_r1_network.node[72].content_store 	decision_no[72] 	8622
scalar tree_5_3_u10_r1_network.node[72].content_store 	decision_ratio[72] 	0.016987800706875
scalar tree_5_3_u10_r1_network.node[73].core_layer 	interests[73] 	13116
scalar tree_5_3_u10_r1_network.node[73].core_layer 	data[73] 	8955
scalar tree_5_3_u10_r1_network.node[73].content_store 	p_hit[73] 	0.3172461116194
scalar tree_5_3_u10_r1_network.node[73].content_store 	hits[73] 	4161
scalar tree_5_3_u10_r1_network.node[73].content_store 	misses[73] 	8955
scalar tree_5_3_u10_r1_network.node[73].content_store 	decision_yes[73] 	142
scalar tree_5_3_u10_r1_network.node[73].content_store 	decision_no[73] 	8813
scalar tree_5_3_u10_r1_network.node[73].content_store 	decision_ratio[73] 	0.015857063093244
scalar tree_5_3_u10_r1_network.node[74].core_layer 	interests[74] 	12846
scalar tree_5_3_u10_r1_network.node[74].core_layer 	data[74] 	8845
scalar tree_5_3_u10_r1_network.node[74].content_store 	p_hit[74] 	0.31145881986611
scalar tree_5_3_u10_r1_network.node[74].content_store 	hits[74] 	4001
scalar tree_5_3_u10_r1_network.node[74].content_store 	misses[74] 	8845
scalar tree_5_3_u10_r1_network.node[74].content_store 	decision_yes[74] 	171
scalar tree_5_3_u10_r1_network.node[74].content_store 	decision_no[74] 	8674
scalar tree_5_3_u10_r1_network.node[74].content_store 	decision_ratio[74] 	0.019332956472583
scalar tree_5_3_u10_r1_network.node[75].core_layer 	interests[75] 	12300
scalar tree_5_3_u10_r1_network.node[75].core_layer 	data[75] 	8825
scalar tree_5_3_u10_r1_network.node[75].content_store 	p_hit[75] 	0.28252032520325
scalar tree_5_3_u10_r1_network.node[75].content_store 	hits[75] 	3475
scalar tree_5_3_u10_r1_network.node[75].content_store 	misses[75] 	8825
scalar tree_5_3_u10_r1_network.node[75].content_store 	decision_yes[75] 	130
scalar tree_5_3_u10_r1_network.node[75].content_store 	decision_no[75] 	8695
scalar tree_5_3_u10_r1_network.node[75].content_store 	decision_ratio[75] 	0.014730878186969
scalar tree_5_3_u10_r1_network.node[76].core_layer 	interests[76] 	12445
scalar tree_5_3_u10_r1_network.node[76].core_layer 	data[76] 	8723
scalar tree_5_3_u10_r1_network.node[76].content_store 	p_hit[76] 	0.29907593411008
scalar tree_5_3_u10_r1_network.node[76].content_store 	hits[76] 	3722
scalar tree_5_3_u10_r1_network.node[76].content_store 	misses[76] 	8723
scalar tree_5_3_u10_r1_network.node[76].content_store 	decision_yes[76] 	129
scalar tree_5_3_u10_r1_network.node[76].content_store 	decision_no[76] 	8594
scalar tree_5_3_u10_r1_network.node[76].content_store 	decision_ratio[76] 	0.014788490198326
scalar tree_5_3_u10_r1_network.node[77].core_layer 	interests[77] 	13346
scalar tree_5_3_u10_r1_network.node[77].core_layer 	data[77] 	9103
scalar tree_5_3_u10_r1_network.node[77].content_store 	p_hit[77] 	0.31799790199311
scalar tree_5_3_u10_r1_network.node[77].content_store 	hits[77] 	4244
scalar tree_5_3_u10_r1_network.node[77].content_store 	misses[77] 	9102
scalar tree_5_3_u10_r1_network.node[77].content_store 	decision_yes[77] 	159
scalar tree_5_3_u10_r1_network.node[77].content_store 	decision_no[77] 	8944
scalar tree_5_3_u10_r1_network.node[77].content_store 	decision_ratio[77] 	0.017466769196968
scalar tree_5_3_u10_r1_network.node[78].core_layer 	interests[78] 	13055
scalar tree_5_3_u10_r1_network.node[78].core_layer 	data[78] 	8872
scalar tree_5_3_u10_r1_network.node[78].content_store 	p_hit[78] 	0.32033703561854
scalar tree_5_3_u10_r1_network.node[78].content_store 	hits[78] 	4182
scalar tree_5_3_u10_r1_network.node[78].content_store 	misses[78] 	8873
scalar tree_5_3_u10_r1_network.node[78].content_store 	decision_yes[78] 	149
scalar tree_5_3_u10_r1_network.node[78].content_store 	decision_no[78] 	8723
scalar tree_5_3_u10_r1_network.node[78].content_store 	decision_ratio[78] 	0.016794409377818
scalar tree_5_3_u10_r1_network.node[79].core_layer 	interests[79] 	12869
scalar tree_5_3_u10_r1_network.node[79].core_layer 	data[79] 	8762
scalar tree_5_3_u10_r1_network.node[79].content_store 	p_hit[79] 	0.31913901624058
scalar tree_5_3_u10_r1_network.node[79].content_store 	hits[79] 	4107
scalar tree_5_3_u10_r1_network.node[79].content_store 	misses[79] 	8762
scalar tree_5_3_u10_r1_network.node[79].content_store 	decision_yes[79] 	156
scalar tree_5_3_u10_r1_network.node[79].content_store 	decision_no[79] 	8606
scalar tree_5_3_u10_r1_network.node[79].content_store 	decision_ratio[79] 	0.017804154302671
scalar tree_5_3_u10_r1_network.node[80].core_layer 	interests[80] 	12374
scalar tree_5_3_u10_r1_network.node[80].core_layer 	data[80] 	8848
scalar tree_5_3_u10_r1_network.node[80].content_store 	p_hit[80] 	0.28495231937934
scalar tree_5_3_u10_r1_network.node[80].content_store 	hits[80] 	3526
scalar tree_5_3_u10_r1_network.node[80].content_store 	misses[80] 	8848
scalar tree_5_3_u10_r1_network.node[80].content_store 	decision_yes[80] 	164
scalar tree_5_3_u10_r1_network.node[80].content_store 	decision_no[80] 	8684
scalar tree_5_3_u10_r1_network.node[80].content_store 	decision_ratio[80] 	0.018535262206148
scalar tree_5_3_u10_r1_network.node[81].core_layer 	interests[81] 	13006
scalar tree_5_3_u10_r1_network.node[81].core_layer 	data[81] 	8950
scalar tree_5_3_u10_r1_network.node[81].content_store 	p_hit[81] 	0.31185606643088
scalar tree_5_3_u10_r1_network.node[81].content_store 	hits[81] 	4056
scalar tree_5_3_u10_r1_network.node[81].content_store 	misses[81] 	8950
scalar tree_5_3_u10_r1_network.node[81].content_store 	decision_yes[81] 	163
scalar tree_5_3_u10_r1_network.node[81].content_store 	decision_no[81] 	8787
scalar tree_5_3_u10_r1_network.node[81].content_store 	decision_ratio[81] 	0.018212290502793
scalar tree_5_3_u10_r1_network.node[82].core_layer 	interests[82] 	13106
scalar tree_5_3_u10_r1_network.node[82].core_layer 	data[82] 	8798
scalar tree_5_3_u10_r1_network.node[82].content_store 	p_hit[82] 	0.3287044101938
scalar tree_5_3_u10_r1_network.node[82].content_store 	hits[82] 	4308
scalar tree_5_3_u10_r1_network.node[82].content_store 	misses[82] 	8798
scalar tree_5_3_u10_r1_network.node[82].content_store 	decision_yes[82] 	163
scalar tree_5_3_u10_r1_network.node[82].content_store 	decision_no[82] 	8635
scalar tree_5_3_u10_r1_network.node[82].content_store 	decision_ratio[82] 	0.018526937940441
scalar tree_5_3_u10_r1_network.node[83].core_layer 	interests[83] 	12845
scalar tree_5_3_u10_r1_network.node[83].core_layer 	data[83] 	8805
scalar tree_5_3_u10_r1_network.node[83].content_store 	p_hit[83] 	0.31436356558972
scalar tree_5_3_u10_r1_network.node[83].content_store 	hits[83] 	4038
scalar tree_5_3_u10_r1_network.node[83].content_store 	misses[83] 	8807
scalar tree_5_3_u10_r1_network.node[83].content_store 	decision_yes[83] 	149
scalar tree_5_3_u10_r1_network.node[83].content_store 	decision_no[83] 	8656
scalar tree_5_3_u10_r1_network.node[83].content_store 	decision_ratio[83] 	0.016922203293583
scalar tree_5_3_u10_r1_network.node[84].core_layer 	interests[84] 	12243
scalar tree_5_3_u10_r1_network.node[84].core_layer 	data[84] 	8729
scalar tree_5_3_u10_r1_network.node[84].content_store 	p_hit[84] 	0.28702115494568
scalar tree_5_3_u10_r1_network.node[84].content_store 	hits[84] 	3514
scalar tree_5_3_u10_r1_network.node[84].content_store 	misses[84] 	8729
scalar tree_5_3_u10_r1_network.node[84].content_store 	decision_yes[84] 	111
scalar tree_5_3_u10_r1_network.node[84].content_store 	decision_no[84] 	8618
scalar tree_5_3_u10_r1_network.node[84].content_store 	decision_ratio[84] 	0.012716233245503
scalar tree_5_3_u10_r1_network.node[85].core_layer 	interests[85] 	12521
scalar tree_5_3_u10_r1_network.node[85].core_layer 	data[85] 	8867
scalar tree_5_3_u10_r1_network.node[85].content_store 	p_hit[85] 	0.29182972606022
scalar tree_5_3_u10_r1_network.node[85].content_store 	hits[85] 	3654
scalar tree_5_3_u10_r1_network.node[85].content_store 	misses[85] 	8867
scalar tree_5_3_u10_r1_network.node[85].content_store 	decision_yes[85] 	148
scalar tree_5_3_u10_r1_network.node[85].content_store 	decision_no[85] 	8719
scalar tree_5_3_u10_r1_network.node[85].content_store 	decision_ratio[85] 	0.016691101838277
scalar tree_5_3_u10_r1_network.node[86].core_layer 	interests[86] 	12941
scalar tree_5_3_u10_r1_network.node[86].core_layer 	data[86] 	8790
scalar tree_5_3_u10_r1_network.node[86].content_store 	p_hit[86] 	0.32076346495634
scalar tree_5_3_u10_r1_network.node[86].content_store 	hits[86] 	4151
scalar tree_5_3_u10_r1_network.node[86].content_store 	misses[86] 	8790
scalar tree_5_3_u10_r1_network.node[86].content_store 	decision_yes[86] 	149
scalar tree_5_3_u10_r1_network.node[86].content_store 	decision_no[86] 	8641
scalar tree_5_3_u10_r1_network.node[86].content_store 	decision_ratio[86] 	0.016951080773606
scalar tree_5_3_u10_r1_network.node[87].core_layer 	interests[87] 	12881
scalar tree_5_3_u10_r1_network.node[87].core_layer 	data[87] 	8809
scalar tree_5_3_u10_r1_network.node[87].content_store 	p_hit[87] 	0.31604689076935
scalar tree_5_3_u10_r1_network.node[87].content_store 	hits[87] 	4071
scalar tree_5_3_u10_r1_network.node[87].content_store 	misses[87] 	8810
scalar tree_5_3_u10_r1_network.node[87].content_store 	decision_yes[87] 	133
scalar tree_5_3_u10_r1_network.node[87].content_store 	decision_no[87] 	8676
scalar tree_5_3_u10_r1_network.node[87].content_store 	decision_ratio[87] 	0.015098195027812
scalar tree_5_3_u10_r1_network.node[88].core_layer 	interests[88] 	13034
scalar tree_5_3_u10_r1_network.node[88].core_layer 	data[88] 	8942
scalar tree_5_3_u10_r1_network.node[88].content_store 	p_hit[88] 	0.31394813564524
scalar tree_5_3_u10_r1_network.node[88].content_store 	hits[88] 	4092
scalar tree_5_3_u10_r1_network.node[88].content_store 	misses[88] 	8942
scalar tree_5_3_u10_r1_network.node[88].content_store 	decision_yes[88] 	161
scalar tree_5_3_u10_r1_network.node[88].content_store 	decision_no[88] 	8781
scalar tree_5_3_u10_r1_network.node[88].content_store 	decision_ratio[88] 	0.018004920599418
scalar tree_5_3_u10_r1_network.node[89].core_layer 	interests[89] 	12403
scalar tree_5_3_u10_r1_network.node[89].core_layer 	data[89] 	8739
scalar tree_5_3_u10_r1_network.node[89].content_store 	p_hit[89] 	0.29541240022575
scalar tree_5_3_u10_r1_network.node[89].content_store 	hits[89] 	3664
scalar tree_5_3_u10_r1_network.node[89].content_store 	misses[89] 	8739
scalar tree_5_3_u10_r1_network.node[89].content_store 	decision_yes[89] 	139
scalar tree_5_3_u10_r1_network.node[89].content_store 	decision_no[89] 	8600
scalar tree_5_3_u10_r1_network.node[89].content_store 	decision_ratio[89] 	0.015905710035473
scalar tree_5_3_u10_r1_network.node[90].core_layer 	interests[90] 	12841
scalar tree_5_3_u10_r1_network.node[90].core_layer 	data[90] 	8801
scalar tree_5_3_u10_r1_network.node[90].content_store 	p_hit[90] 	0.31461724164785
scalar tree_5_3_u10_r1_network.node[90].content_store 	hits[90] 	4040
scalar tree_5_3_u10_r1_network.node[90].content_store 	misses[90] 	8801
scalar tree_5_3_u10_r1_network.node[90].content_store 	decision_yes[90] 	153
scalar tree_5_3_u10_r1_network.node[90].content_store 	decision_no[90] 	8648
scalar tree_5_3_u10_r1_network.node[90].content_store 	decision_ratio[90] 	0.017384388137712
scalar tree_5_3_u10_r1_network.node[91].core_layer 	interests[91] 	12990
scalar tree_5_3_u10_r1_network.node[91].core_layer 	data[91] 	8819
scalar tree_5_3_u10_r1_network.node[91].content_store 	p_hit[91] 	0.32101616628176
scalar tree_5_3_u10_r1_network.node[91].content_store 	hits[91] 	4170
scalar tree_5_3_u10_r1_network.node[91].content_store 	misses[91] 	8820
scalar tree_5_3_u10_r1_network.node[91].content_store 	decision_yes[91] 	159
scalar tree_5_3_u10_r1_network.node[91].content_store 	decision_no[91] 	8660
scalar tree_5_3_u10_r1_network.node[91].content_store 	decision_ratio[91] 	0.018029255017576
scalar tree_5_3_u10_r1_network.node[92].core_layer 	interests[92] 	13045
scalar tree_5_3_u10_r1_network.node[92].core_layer 	data[92] 	8962
scalar tree_5_3_u10_r1_network.node[92].content_store 	p_hit[92] 	0.31291682637026
scalar tree_5_3_u10_r1_network.node[92].content_store 	hits[92] 	4082
scalar tree_5_3_u10_r1_network.node[92].content_store 	misses[92] 	8963
scalar tree_5_3_u10_r1_network.node[92].content_store 	decision_yes[92] 	154
scalar tree_5_3_u10_r1_network.node[92].content_store 	decision_no[92] 	8808
scalar tree_5_3_u10_r1_network.node[92].content_store 	decision_ratio[92] 	0.017183664360634
scalar tree_5_3_u10_r1_network.node[93].core_layer 	interests[93] 	12286
scalar tree_5_3_u10_r1_network.node[93].core_layer 	data[93] 	8796
scalar tree_5_3_u10_r1_network.node[93].content_store 	p_hit[93] 	0.28406316132183
scalar tree_5_3_u10_r1_network.node[93].content_store 	hits[93] 	3490
scalar tree_5_3_u10_r1_network.node[93].content_store 	misses[93] 	8796
scalar tree_5_3_u10_r1_network.node[93].content_store 	decision_yes[93] 	145
scalar tree_5_3_u10_r1_network.node[93].content_store 	decision_no[93] 	8651
scalar tree_5_3_u10_r1_network.node[93].content_store 	decision_ratio[93] 	0.016484765802638
scalar tree_5_3_u10_r1_network.node[94].core_layer 	interests[94] 	12362
scalar tree_5_3_u10_r1_network.node[94].core_layer 	data[94] 	8771
scalar tree_5_3_u10_r1_network.node[94].content_store 	p_hit[94] 	0.29048697621744
scalar tree_5_3_u10_r1_network.node[94].content_store 	hits[94] 	3591
scalar tree_5_3_u10_r1_network.node[94].content_store 	misses[94] 	8771
scalar tree_5_3_u10_r1_network.node[94].content_store 	decision_yes[94] 	133
scalar tree_5_3_u10_r1_network.node[94].content_store 	decision_no[94] 	8638
scalar tree_5_3_u10_r1_network.node[94].content_store 	decision_ratio[94] 	0.015163607342378
scalar tree_5_3_u10_r1_network.node[95].core_layer 	interests[95] 	12950
scalar tree_5_3_u10_r1_network.node[95].core_layer 	data[95] 	8827
scalar tree_5_3_u10_r1_network.node[95].content_store 	p_hit[95] 	0.31837837837838
scalar tree_5_3_u10_r1_network.node[95].content_store 	hits[95] 	4123
scalar tree_5_3_u10_r1_network.node[95].content_store 	misses[95] 	8827
scalar tree_5_3_u10_r1_network.node[95].content_store 	decision_yes[95] 	156
scalar tree_5_3_u10_r1_network.node[95].content_store 	decision_no[95] 	8671
scalar tree_5_3_u10_r1_network.node[95].content_store 	decision_ratio[95] 	0.017673048600884
scalar tree_5_3_u10_r1_network.node[96].core_layer 	interests[96] 	12873
scalar tree_5_3_u10_r1_network.node[96].core_layer 	data[96] 	8832
scalar tree_5_3_u10_r1_network.node[96].content_store 	p_hit[96] 	0.31383515885963
scalar tree_5_3_u10_r1_network.node[96].content_store 	hits[96] 	4040
scalar tree_5_3_u10_r1_network.node[96].content_store 	misses[96] 	8833
scalar tree_5_3_u10_r1_network.node[96].content_store 	decision_yes[96] 	162
scalar tree_5_3_u10_r1_network.node[96].content_store 	decision_no[96] 	8670
scalar tree_5_3_u10_r1_network.node[96].content_store 	decision_ratio[96] 	0.018342391304348
scalar tree_5_3_u10_r1_network.node[97].core_layer 	interests[97] 	12952
scalar tree_5_3_u10_r1_network.node[97].core_layer 	data[97] 	8695
scalar tree_5_3_u10_r1_network.node[97].content_store 	p_hit[97] 	0.32859789993823
scalar tree_5_3_u10_r1_network.node[97].content_store 	hits[97] 	4256
scalar tree_5_3_u10_r1_network.node[97].content_store 	misses[97] 	8696
scalar tree_5_3_u10_r1_network.node[97].content_store 	decision_yes[97] 	154
scalar tree_5_3_u10_r1_network.node[97].content_store 	decision_no[97] 	8541
scalar tree_5_3_u10_r1_network.node[97].content_store 	decision_ratio[97] 	0.017711328349626
scalar tree_5_3_u10_r1_network.node[98].core_layer 	interests[98] 	12488
scalar tree_5_3_u10_r1_network.node[98].core_layer 	data[98] 	8766
scalar tree_5_3_u10_r1_network.node[98].content_store 	p_hit[98] 	0.29804612427931
scalar tree_5_3_u10_r1_network.node[98].content_store 	hits[98] 	3722
scalar tree_5_3_u10_r1_network.node[98].content_store 	misses[98] 	8766
scalar tree_5_3_u10_r1_network.node[98].content_store 	decision_yes[98] 	146
scalar tree_5_3_u10_r1_network.node[98].content_store 	decision_no[98] 	8620
scalar tree_5_3_u10_r1_network.node[98].content_store 	decision_ratio[98] 	0.016655258955054
scalar tree_5_3_u10_r1_network.node[99].core_layer 	interests[99] 	12773
scalar tree_5_3_u10_r1_network.node[99].core_layer 	data[99] 	8724
scalar tree_5_3_u10_r1_network.node[99].content_store 	p_hit[99] 	0.31691849996085
scalar tree_5_3_u10_r1_network.node[99].content_store 	hits[99] 	4048
scalar tree_5_3_u10_r1_network.node[99].content_store 	misses[99] 	8725
scalar tree_5_3_u10_r1_network.node[99].content_store 	decision_yes[99] 	140
scalar tree_5_3_u10_r1_network.node[99].content_store 	decision_no[99] 	8584
scalar tree_5_3_u10_r1_network.node[99].content_store 	decision_ratio[99] 	0.016047684548372
scalar tree_5_3_u10_r1_network.node[100].core_layer 	interests[100] 	12883
scalar tree_5_3_u10_r1_network.node[100].core_layer 	data[100] 	8765
scalar tree_5_3_u10_r1_network.node[100].content_store 	p_hit[100] 	0.31964604517581
scalar tree_5_3_u10_r1_network.node[100].content_store 	hits[100] 	4118
scalar tree_5_3_u10_r1_network.node[100].content_store 	misses[100] 	8765
scalar tree_5_3_u10_r1_network.node[100].content_store 	decision_yes[100] 	124
scalar tree_5_3_u10_r1_network.node[100].content_store 	decision_no[100] 	8641
scalar tree_5_3_u10_r1_network.node[100].content_store 	decision_ratio[100] 	0.014147176269253
scalar tree_5_3_u10_r1_network.node[101].core_layer 	interests[101] 	12993
scalar tree_5_3_u10_r1_network.node[101].core_layer 	data[101] 	8887
scalar tree_5_3_u10_r1_network.node[101].content_store 	p_hit[101] 	0.31593935195875
scalar tree_5_3_u10_r1_network.node[101].content_store 	hits[101] 	4105
scalar tree_5_3_u10_r1_network.node[101].content_store 	misses[101] 	8888
scalar tree_5_3_u10_r1_network.node[101].content_store 	decision_yes[101] 	135
scalar tree_5_3_u10_r1_network.node[101].content_store 	decision_no[101] 	8752
scalar tree_5_3_u10_r1_network.node[101].content_store 	decision_ratio[101] 	0.015190728029706
scalar tree_5_3_u10_r1_network.node[102].core_layer 	interests[102] 	12362
scalar tree_5_3_u10_r1_network.node[102].core_layer 	data[102] 	8821
scalar tree_5_3_u10_r1_network.node[102].content_store 	p_hit[102] 	0.28644232324867
scalar tree_5_3_u10_r1_network.node[102].content_store 	hits[102] 	3541
scalar tree_5_3_u10_r1_network.node[102].content_store 	misses[102] 	8821
scalar tree_5_3_u10_r1_network.node[102].content_store 	decision_yes[102] 	133
scalar tree_5_3_u10_r1_network.node[102].content_store 	decision_no[102] 	8688
scalar tree_5_3_u10_r1_network.node[102].content_store 	decision_ratio[102] 	0.015077655594604
scalar tree_5_3_u10_r1_network.node[103].core_layer 	interests[103] 	12369
scalar tree_5_3_u10_r1_network.node[103].core_layer 	data[103] 	8759
scalar tree_5_3_u10_r1_network.node[103].content_store 	p_hit[103] 	0.29185867895545
scalar tree_5_3_u10_r1_network.node[103].content_store 	hits[103] 	3610
scalar tree_5_3_u10_r1_network.node[103].content_store 	misses[103] 	8759
scalar tree_5_3_u10_r1_network.node[103].content_store 	decision_yes[103] 	150
scalar tree_5_3_u10_r1_network.node[103].content_store 	decision_no[103] 	8609
scalar tree_5_3_u10_r1_network.node[103].content_store 	decision_ratio[103] 	0.017125242607604
scalar tree_5_3_u10_r1_network.node[104].core_layer 	interests[104] 	12939
scalar tree_5_3_u10_r1_network.node[104].core_layer 	data[104] 	8765
scalar tree_5_3_u10_r1_network.node[104].content_store 	p_hit[104] 	0.32259061751295
scalar tree_5_3_u10_r1_network.node[104].content_store 	hits[104] 	4174
scalar tree_5_3_u10_r1_network.node[104].content_store 	misses[104] 	8765
scalar tree_5_3_u10_r1_network.node[104].content_store 	decision_yes[104] 	145
scalar tree_5_3_u10_r1_network.node[104].content_store 	decision_no[104] 	8620
scalar tree_5_3_u10_r1_network.node[104].content_store 	decision_ratio[104] 	0.016543069024529
scalar tree_5_3_u10_r1_network.node[105].core_layer 	interests[105] 	12894
scalar tree_5_3_u10_r1_network.node[105].core_layer 	data[105] 	8762
scalar tree_5_3_u10_r1_network.node[105].content_store 	p_hit[105] 	0.32045912827672
scalar tree_5_3_u10_r1_network.node[105].content_store 	hits[105] 	4132
scalar tree_5_3_u10_r1_network.node[105].content_store 	misses[105] 	8762
scalar tree_5_3_u10_r1_network.node[105].content_store 	decision_yes[105] 	141
scalar tree_5_3_u10_r1_network.node[105].content_store 	decision_no[105] 	8621
scalar tree_5_3_u10_r1_network.node[105].content_store 	decision_ratio[105] 	0.016092216388952
scalar tree_5_3_u10_r1_network.node[106].core_layer 	interests[106] 	13129
scalar tree_5_3_u10_r1_network.node[106].core_layer 	data[106] 	8950
scalar tree_5_3_u10_r1_network.node[106].content_store 	p_hit[106] 	0.31822682611014
scalar tree_5_3_u10_r1_network.node[106].content_store 	hits[106] 	4178
scalar tree_5_3_u10_r1_network.node[106].content_store 	misses[106] 	8951
scalar tree_5_3_u10_r1_network.node[106].content_store 	decision_yes[106] 	152
scalar tree_5_3_u10_r1_network.node[106].content_store 	decision_no[106] 	8798
scalar tree_5_3_u10_r1_network.node[106].content_store 	decision_ratio[106] 	0.016983240223464
scalar tree_5_3_u10_r1_network.node[107].core_layer 	interests[107] 	12291
scalar tree_5_3_u10_r1_network.node[107].core_layer 	data[107] 	8710
scalar tree_5_3_u10_r1_network.node[107].content_store 	p_hit[107] 	0.29127003498495
scalar tree_5_3_u10_r1_network.node[107].content_store 	hits[107] 	3580
scalar tree_5_3_u10_r1_network.node[107].content_store 	misses[107] 	8711
scalar tree_5_3_u10_r1_network.node[107].content_store 	decision_yes[107] 	156
scalar tree_5_3_u10_r1_network.node[107].content_store 	decision_no[107] 	8554
scalar tree_5_3_u10_r1_network.node[107].content_store 	decision_ratio[107] 	0.017910447761194
scalar tree_5_3_u10_r1_network.node[108].core_layer 	interests[108] 	12734
scalar tree_5_3_u10_r1_network.node[108].core_layer 	data[108] 	8668
scalar tree_5_3_u10_r1_network.node[108].content_store 	p_hit[108] 	0.31930265431129
scalar tree_5_3_u10_r1_network.node[108].content_store 	hits[108] 	4066
scalar tree_5_3_u10_r1_network.node[108].content_store 	misses[108] 	8668
scalar tree_5_3_u10_r1_network.node[108].content_store 	decision_yes[108] 	136
scalar tree_5_3_u10_r1_network.node[108].content_store 	decision_no[108] 	8532
scalar tree_5_3_u10_r1_network.node[108].content_store 	decision_ratio[108] 	0.015689893862483
scalar tree_5_3_u10_r1_network.node[109].core_layer 	interests[109] 	12918
scalar tree_5_3_u10_r1_network.node[109].core_layer 	data[109] 	8867
scalar tree_5_3_u10_r1_network.node[109].content_store 	p_hit[109] 	0.31359343551633
scalar tree_5_3_u10_r1_network.node[109].content_store 	hits[109] 	4051
scalar tree_5_3_u10_r1_network.node[109].content_store 	misses[109] 	8867
scalar tree_5_3_u10_r1_network.node[109].content_store 	decision_yes[109] 	147
scalar tree_5_3_u10_r1_network.node[109].content_store 	decision_no[109] 	8720
scalar tree_5_3_u10_r1_network.node[109].content_store 	decision_ratio[109] 	0.016578324123153
scalar tree_5_3_u10_r1_network.node[110].core_layer 	interests[110] 	12818
scalar tree_5_3_u10_r1_network.node[110].core_layer 	data[110] 	8817
scalar tree_5_3_u10_r1_network.node[110].content_store 	p_hit[110] 	0.31213917927914
scalar tree_5_3_u10_r1_network.node[110].content_store 	hits[110] 	4001
scalar tree_5_3_u10_r1_network.node[110].content_store 	misses[110] 	8817
scalar tree_5_3_u10_r1_network.node[110].content_store 	decision_yes[110] 	153
scalar tree_5_3_u10_r1_network.node[110].content_store 	decision_no[110] 	8664
scalar tree_5_3_u10_r1_network.node[110].content_store 	decision_ratio[110] 	0.017352841102416
scalar tree_5_3_u10_r1_network.node[111].core_layer 	interests[111] 	12420
scalar tree_5_3_u10_r1_network.node[111].core_layer 	data[111] 	8902
scalar tree_5_3_u10_r1_network.node[111].content_store 	p_hit[111] 	0.28301127214171
scalar tree_5_3_u10_r1_network.node[111].content_store 	hits[111] 	3515
scalar tree_5_3_u10_r1_network.node[111].content_store 	misses[111] 	8905
scalar tree_5_3_u10_r1_network.node[111].content_store 	decision_yes[111] 	153
scalar tree_5_3_u10_r1_network.node[111].content_store 	decision_no[111] 	8749
scalar tree_5_3_u10_r1_network.node[111].content_store 	decision_ratio[111] 	0.017187148955291
scalar tree_5_3_u10_r1_network.node[112].core_layer 	interests[112] 	12321
scalar tree_5_3_u10_r1_network.node[112].core_layer 	data[112] 	8624
scalar tree_5_3_u10_r1_network.node[112].content_store 	p_hit[112] 	0.299975651327
scalar tree_5_3_u10_r1_network.node[112].content_store 	hits[112] 	3696
scalar tree_5_3_u10_r1_network.node[112].content_store 	misses[112] 	8625
scalar tree_5_3_u10_r1_network.node[112].content_store 	decision_yes[112] 	136
scalar tree_5_3_u10_r1_network.node[112].content_store 	decision_no[112] 	8488
scalar tree_5_3_u10_r1_network.node[112].content_store 	decision_ratio[112] 	0.015769944341373
scalar tree_5_3_u10_r1_network.node[113].core_layer 	interests[113] 	12904
scalar tree_5_3_u10_r1_network.node[113].core_layer 	data[113] 	8801
scalar tree_5_3_u10_r1_network.node[113].content_store 	p_hit[113] 	0.31804091754495
scalar tree_5_3_u10_r1_network.node[113].content_store 	hits[113] 	4104
scalar tree_5_3_u10_r1_network.node[113].content_store 	misses[113] 	8800
scalar tree_5_3_u10_r1_network.node[113].content_store 	decision_yes[113] 	139
scalar tree_5_3_u10_r1_network.node[113].content_store 	decision_no[113] 	8662
scalar tree_5_3_u10_r1_network.node[113].content_store 	decision_ratio[113] 	0.015793659811385
scalar tree_5_3_u10_r1_network.node[114].core_layer 	interests[114] 	12931
scalar tree_5_3_u10_r1_network.node[114].core_layer 	data[114] 	8753
scalar tree_5_3_u10_r1_network.node[114].content_store 	p_hit[114] 	0.32309952826541
scalar tree_5_3_u10_r1_network.node[114].content_store 	hits[114] 	4178
scalar tree_5_3_u10_r1_network.node[114].content_store 	misses[114] 	8753
scalar tree_5_3_u10_r1_network.node[114].content_store 	decision_yes[114] 	137
scalar tree_5_3_u10_r1_network.node[114].content_store 	decision_no[114] 	8616
scalar tree_5_3_u10_r1_network.node[114].content_store 	decision_ratio[114] 	0.01565177653376
scalar tree_5_3_u10_r1_network.node[115].core_layer 	interests[115] 	12997
scalar tree_5_3_u10_r1_network.node[115].core_layer 	data[115] 	8848
scalar tree_5_3_u10_r1_network.node[115].content_store 	p_hit[115] 	0.3192275140417
scalar tree_5_3_u10_r1_network.node[115].content_store 	hits[115] 	4149
scalar tree_5_3_u10_r1_network.node[115].content_store 	misses[115] 	8848
scalar tree_5_3_u10_r1_network.node[115].content_store 	decision_yes[115] 	138
scalar tree_5_3_u10_r1_network.node[115].content_store 	decision_no[115] 	8710
scalar tree_5_3_u10_r1_network.node[115].content_store 	decision_ratio[115] 	0.015596745027125
scalar tree_5_3_u10_r1_network.node[116].core_layer 	interests[116] 	12516
scalar tree_5_3_u10_r1_network.node[116].core_layer 	data[116] 	8813
scalar tree_5_3_u10_r1_network.node[116].content_store 	p_hit[116] 	0.29586129753915
scalar tree_5_3_u10_r1_network.node[116].content_store 	hits[116] 	3703
scalar tree_5_3_u10_r1_network.node[116].content_store 	misses[116] 	8813
scalar tree_5_3_u10_r1_network.node[116].content_store 	decision_yes[116] 	123
scalar tree_5_3_u10_r1_network.node[116].content_store 	decision_no[116] 	8690
scalar tree_5_3_u10_r1_network.node[116].content_store 	decision_ratio[116] 	0.013956654941564
scalar tree_5_3_u10_r1_network.node[117].core_layer 	interests[117] 	12816
scalar tree_5_3_u10_r1_network.node[117].core_layer 	data[117] 	8882
scalar tree_5_3_u10_r1_network.node[117].content_store 	p_hit[117] 	0.30696004993758
scalar tree_5_3_u10_r1_network.node[117].content_store 	hits[117] 	3934
scalar tree_5_3_u10_r1_network.node[117].content_store 	misses[117] 	8882
scalar tree_5_3_u10_r1_network.node[117].content_store 	decision_yes[117] 	159
scalar tree_5_3_u10_r1_network.node[117].content_store 	decision_no[117] 	8723
scalar tree_5_3_u10_r1_network.node[117].content_store 	decision_ratio[117] 	0.017901373564512
scalar tree_5_3_u10_r1_network.node[118].core_layer 	interests[118] 	12875
scalar tree_5_3_u10_r1_network.node[118].core_layer 	data[118] 	8933
scalar tree_5_3_u10_r1_network.node[118].content_store 	p_hit[118] 	0.30617475728155
scalar tree_5_3_u10_r1_network.node[118].content_store 	hits[118] 	3942
scalar tree_5_3_u10_r1_network.node[118].content_store 	misses[118] 	8933
scalar tree_5_3_u10_r1_network.node[118].content_store 	decision_yes[118] 	153
scalar tree_5_3_u10_r1_network.node[118].content_store 	decision_no[118] 	8780
scalar tree_5_3_u10_r1_network.node[118].content_store 	decision_ratio[118] 	0.01712750475764
scalar tree_5_3_u10_r1_network.node[119].core_layer 	interests[119] 	13033
scalar tree_5_3_u10_r1_network.node[119].core_layer 	data[119] 	8969
scalar tree_5_3_u10_r1_network.node[119].content_store 	p_hit[119] 	0.31182383181156
scalar tree_5_3_u10_r1_network.node[119].content_store 	hits[119] 	4064
scalar tree_5_3_u10_r1_network.node[119].content_store 	misses[119] 	8969
scalar tree_5_3_u10_r1_network.node[119].content_store 	decision_yes[119] 	165
scalar tree_5_3_u10_r1_network.node[119].content_store 	decision_no[119] 	8804
scalar tree_5_3_u10_r1_network.node[119].content_store 	decision_ratio[119] 	0.018396699743561
scalar tree_5_3_u10_r1_network.node[120].core_layer 	interests[120] 	12165
scalar tree_5_3_u10_r1_network.node[120].core_layer 	data[120] 	8709
scalar tree_5_3_u10_r1_network.node[120].content_store 	p_hit[120] 	0.28409371146732
scalar tree_5_3_u10_r1_network.node[120].content_store 	hits[120] 	3456
scalar tree_5_3_u10_r1_network.node[120].content_store 	misses[120] 	8709
scalar tree_5_3_u10_r1_network.node[120].content_store 	decision_yes[120] 	130
scalar tree_5_3_u10_r1_network.node[120].content_store 	decision_no[120] 	8579
scalar tree_5_3_u10_r1_network.node[120].content_store 	decision_ratio[120] 	0.014927086921575
scalar tree_5_3_u10_r1_network.client[40] 	hdistance[40] 	3.2241853487791
scalar tree_5_3_u10_r1_network.client[40] 	downloads[40] 	11999
scalar tree_5_3_u10_r1_network.client[40] 	avg_time[40] 	0.005413764528
scalar tree_5_3_u10_r1_network.client[41] 	hdistance[41] 	3.0886834873845
scalar tree_5_3_u10_r1_network.client[41] 	downloads[41] 	12009
scalar tree_5_3_u10_r1_network.client[41] 	avg_time[41] 	0.005187106656
scalar tree_5_3_u10_r1_network.client[42] 	hdistance[42] 	3.0892230576441
scalar tree_5_3_u10_r1_network.client[42] 	downloads[42] 	11970
scalar tree_5_3_u10_r1_network.client[42] 	avg_time[42] 	0.005180559361
scalar tree_5_3_u10_r1_network.client[43] 	hdistance[43] 	3.1163157022053
scalar tree_5_3_u10_r1_network.client[43] 	downloads[43] 	12062
scalar tree_5_3_u10_r1_network.client[43] 	avg_time[43] 	0.00522864899
scalar tree_5_3_u10_r1_network.client[44] 	hdistance[44] 	3.1521939760047
scalar tree_5_3_u10_r1_network.client[44] 	downloads[44] 	11919
scalar tree_5_3_u10_r1_network.client[44] 	avg_time[44] 	0.005298763682
scalar tree_5_3_u10_r1_network.client[45] 	hdistance[45] 	3.0568603213844
scalar tree_5_3_u10_r1_network.client[45] 	downloads[45] 	12135
scalar tree_5_3_u10_r1_network.client[45] 	avg_time[45] 	0.005124381742
scalar tree_5_3_u10_r1_network.client[46] 	hdistance[46] 	3.129626569729
scalar tree_5_3_u10_r1_network.client[46] 	downloads[46] 	12104
scalar tree_5_3_u10_r1_network.client[46] 	avg_time[46] 	0.005244544208
scalar tree_5_3_u10_r1_network.client[47] 	hdistance[47] 	3.061931536299
scalar tree_5_3_u10_r1_network.client[47] 	downloads[47] 	12094
scalar tree_5_3_u10_r1_network.client[47] 	avg_time[47] 	0.005126420475
scalar tree_5_3_u10_r1_network.client[48] 	hdistance[48] 	3.1536718422157
scalar tree_5_3_u10_r1_network.client[48] 	downloads[48] 	11915
scalar tree_5_3_u10_r1_network.client[48] 	avg_time[48] 	0.005303731835
scalar tree_5_3_u10_r1_network.client[49] 	hdistance[49] 	3.1419294990724
scalar tree_5_3_u10_r1_network.client[49] 	downloads[49] 	11858
scalar tree_5_3_u10_r1_network.client[49] 	avg_time[49] 	0.005288072614
scalar tree_5_3_u10_r1_network.client[50] 	hdistance[50] 	3.0857774864821
scalar tree_5_3_u10_r1_network.client[50] 	downloads[50] 	12206
scalar tree_5_3_u10_r1_network.client[50] 	avg_time[50] 	0.005180787181
scalar tree_5_3_u10_r1_network.client[51] 	hdistance[51] 	3.0512396694215
scalar tree_5_3_u10_r1_network.client[51] 	downloads[51] 	12100
scalar tree_5_3_u10_r1_network.client[51] 	avg_time[51] 	0.005115915098
scalar tree_5_3_u10_r1_network.client[52] 	hdistance[52] 	3.1162615255658
scalar tree_5_3_u10_r1_network.client[52] 	downloads[52] 	11930
scalar tree_5_3_u10_r1_network.client[52] 	avg_time[52] 	0.005224659033
scalar tree_5_3_u10_r1_network.client[53] 	hdistance[53] 	3.1931602801813
scalar tree_5_3_u10_r1_network.client[53] 	downloads[53] 	12135
scalar tree_5_3_u10_r1_network.client[53] 	avg_time[53] 	0.005384514076
scalar tree_5_3_u10_r1_network.client[54] 	hdistance[54] 	3.1000082515059
scalar tree_5_3_u10_r1_network.client[54] 	downloads[54] 	12119
scalar tree_5_3_u10_r1_network.client[54] 	avg_time[54] 	0.005207844807
scalar tree_5_3_u10_r1_network.client[55] 	hdistance[55] 	3.0961922181576
scalar tree_5_3_u10_r1_network.client[55] 	downloads[55] 	12028
scalar tree_5_3_u10_r1_network.client[55] 	avg_time[55] 	0.005188390699
scalar tree_5_3_u10_r1_network.client[56] 	hdistance[56] 	3.1125377643505
scalar tree_5_3_u10_r1_network.client[56] 	downloads[56] 	11916
scalar tree_5_3_u10_r1_network.client[56] 	avg_time[56] 	0.005210134614
scalar tree_5_3_u10_r1_network.client[57] 	hdistance[57] 	3.1297810821974
scalar tree_5_3_u10_r1_network.client[57] 	downloads[57] 	12105
scalar tree_5_3_u10_r1_network.client[57] 	avg_time[57] 	0.005261864568
scalar tree_5_3_u10_r1_network.client[58] 	hdistance[58] 	3.1511889862328
scalar tree_5_3_u10_r1_network.client[58] 	downloads[58] 	11985
scalar tree_5_3_u10_r1_network.client[58] 	avg_time[58] 	0.005305962807
scalar tree_5_3_u10_r1_network.client[59] 	hdistance[59] 	3.11
scalar tree_5_3_u10_r1_network.client[59] 	downloads[59] 	11900
scalar tree_5_3_u10_r1_network.client[59] 	avg_time[59] 	0.005208437644
scalar tree_5_3_u10_r1_network.client[60] 	hdistance[60] 	3.1297735162837
scalar tree_5_3_u10_r1_network.client[60] 	downloads[60] 	12098
scalar tree_5_3_u10_r1_network.client[60] 	avg_time[60] 	0.005238181604
scalar tree_5_3_u10_r1_network.client[61] 	hdistance[61] 	3.087487283825
scalar tree_5_3_u10_r1_network.client[61] 	downloads[61] 	11796
scalar tree_5_3_u10_r1_network.client[61] 	avg_time[61] 	0.005176788992
scalar tree_5_3_u10_r1_network.client[62] 	hdistance[62] 	3.1592064682837
scalar tree_5_3_u10_r1_network.client[62] 	downloads[62] 	11997
scalar tree_5_3_u10_r1_network.client[62] 	avg_time[62] 	0.005303656207
scalar tree_5_3_u10_r1_network.client[63] 	hdistance[63] 	3.1200134093195
scalar tree_5_3_u10_r1_network.client[63] 	downloads[63] 	11932
scalar tree_5_3_u10_r1_network.client[63] 	avg_time[63] 	0.005230210443
scalar tree_5_3_u10_r1_network.client[64] 	hdistance[64] 	3.0937678207739
scalar tree_5_3_u10_r1_network.client[64] 	downloads[64] 	12275
scalar tree_5_3_u10_r1_network.client[64] 	avg_time[64] 	0.005184193212
scalar tree_5_3_u10_r1_network.client[65] 	hdistance[65] 	3.0711684872559
scalar tree_5_3_u10_r1_network.client[65] 	downloads[65] 	12084
scalar tree_5_3_u10_r1_network.client[65] 	avg_time[65] 	0.005140347851
scalar tree_5_3_u10_r1_network.client[66] 	hdistance[66] 	3.2067043753119
scalar tree_5_3_u10_r1_network.client[66] 	downloads[66] 	12022
scalar tree_5_3_u10_r1_network.client[66] 	avg_time[66] 	0.005398240175
scalar tree_5_3_u10_r1_network.client[67] 	hdistance[67] 	3.1840060165455
scalar tree_5_3_u10_r1_network.client[67] 	downloads[67] 	11967
scalar tree_5_3_u10_r1_network.client[67] 	avg_time[67] 	0.005363960301
scalar tree_5_3_u10_r1_network.client[68] 	hdistance[68] 	3.1088412592096
scalar tree_5_3_u10_r1_network.client[68] 	downloads[68] 	11944
scalar tree_5_3_u10_r1_network.client[68] 	avg_time[68] 	0.005224544896
scalar tree_5_3_u10_r1_network.client[69] 	hdistance[69] 	3.0997512437811
scalar tree_5_3_u10_r1_network.client[69] 	downloads[69] 	12060
scalar tree_5_3_u10_r1_network.client[69] 	avg_time[69] 	0.005202816232
scalar tree_5_3_u10_r1_network.client[70] 	hdistance[70] 	3.0851563154807
scalar tree_5_3_u10_r1_network.client[70] 	downloads[70] 	11931
scalar tree_5_3_u10_r1_network.client[70] 	avg_time[70] 	0.005171399248
scalar tree_5_3_u10_r1_network.client[71] 	hdistance[71] 	3.1478972155664
scalar tree_5_3_u10_r1_network.client[71] 	downloads[71] 	12103
scalar tree_5_3_u10_r1_network.client[71] 	avg_time[71] 	0.005295378265
scalar tree_5_3_u10_r1_network.client[72] 	hdistance[72] 	3.0539974884889
scalar tree_5_3_u10_r1_network.client[72] 	downloads[72] 	11945
scalar tree_5_3_u10_r1_network.client[72] 	avg_time[72] 	0.005120298389
scalar tree_5_3_u10_r1_network.client[73] 	hdistance[73] 	3.097895775111
scalar tree_5_3_u10_r1_network.client[73] 	downloads[73] 	12166
scalar tree_5_3_u10_r1_network.client[73] 	avg_time[73] 	0.005192500622
scalar tree_5_3_u10_r1_network.client[74] 	hdistance[74] 	3.0726997985225
scalar tree_5_3_u10_r1_network.client[74] 	downloads[74] 	11912
scalar tree_5_3_u10_r1_network.client[74] 	avg_time[74] 	0.005148922492
scalar tree_5_3_u10_r1_network.client[75] 	hdistance[75] 	3.1753138075314
scalar tree_5_3_u10_r1_network.client[75] 	downloads[75] 	11950
scalar tree_5_3_u10_r1_network.client[75] 	avg_time[75] 	0.005332927129
scalar tree_5_3_u10_r1_network.client[76] 	hdistance[76] 	3.1393924135616
scalar tree_5_3_u10_r1_network.client[76] 	downloads[76] 	11916
scalar tree_5_3_u10_r1_network.client[76] 	avg_time[76] 	0.005275257146
scalar tree_5_3_u10_r1_network.client[77] 	hdistance[77] 	3.0767298654999
scalar tree_5_3_u10_r1_network.client[77] 	downloads[77] 	12342
scalar tree_5_3_u10_r1_network.client[77] 	avg_time[77] 	0.005163686904
scalar tree_5_3_u10_r1_network.client[78] 	hdistance[78] 	3.0490375041487
scalar tree_5_3_u10_r1_network.client[78] 	downloads[78] 	12052
scalar tree_5_3_u10_r1_network.client[78] 	avg_time[78] 	0.005107615086
scalar tree_5_3_u10_r1_network.client[79] 	hdistance[79] 	3.085090298194
scalar tree_5_3_u10_r1_network.client[79] 	downloads[79] 	11905
scalar tree_5_3_u10_r1_network.client[79] 	avg_time[79] 	0.005169541693
scalar tree_5_3_u10_r1_network.client[80] 	hdistance[80] 	3.2481278923012
scalar tree_5_3_u10_r1_network.client[80] 	downloads[80] 	11885
scalar tree_5_3_u10_r1_network.client[80] 	avg_time[80] 	0.005442487615
scalar tree_5_3_u10_r1_network.client[81] 	hdistance[81] 	3.0856008601439
scalar tree_5_3_u10_r1_network.client[81] 	downloads[81] 	12091
scalar tree_5_3_u10_r1_network.client[81] 	avg_time[81] 	0.005170950566
scalar tree_5_3_u10_r1_network.client[82] 	hdistance[82] 	3.0488656195462
scalar tree_5_3_u10_r1_network.client[82] 	downloads[82] 	12033
scalar tree_5_3_u10_r1_network.client[82] 	avg_time[82] 	0.005107119092
scalar tree_5_3_u10_r1_network.client[83] 	hdistance[83] 	3.094181665969
scalar tree_5_3_u10_r1_network.client[83] 	downloads[83] 	11945
scalar tree_5_3_u10_r1_network.client[83] 	avg_time[83] 	0.005178791262
scalar tree_5_3_u10_r1_network.client[84] 	hdistance[84] 	3.1597847111261
scalar tree_5_3_u10_r1_network.client[84] 	downloads[84] 	11891
scalar tree_5_3_u10_r1_network.client[84] 	avg_time[84] 	0.005297785264
scalar tree_5_3_u10_r1_network.client[85] 	hdistance[85] 	3.16872909699
scalar tree_5_3_u10_r1_network.client[85] 	downloads[85] 	11960
scalar tree_5_3_u10_r1_network.client[85] 	avg_time[85] 	0.005329604643
scalar tree_5_3_u10_r1_network.client[86] 	hdistance[86] 	3.0832843589959
scalar tree_5_3_u10_r1_network.client[86] 	downloads[86] 	11911
scalar tree_5_3_u10_r1_network.client[86] 	avg_time[86] 	0.005165474318
scalar tree_5_3_u10_r1_network.client[87] 	hdistance[87] 	3.0945119396732
scalar tree_5_3_u10_r1_network.client[87] 	downloads[87] 	11935
scalar tree_5_3_u10_r1_network.client[87] 	avg_time[87] 	0.005184243474
scalar tree_5_3_u10_r1_network.client[88] 	hdistance[88] 	3.0700356816862
scalar tree_5_3_u10_r1_network.client[88] 	downloads[88] 	12051
scalar tree_5_3_u10_r1_network.client[88] 	avg_time[88] 	0.005153926112
scalar tree_5_3_u10_r1_network.client[89] 	hdistance[89] 	3.1232681165505
scalar tree_5_3_u10_r1_network.client[89] 	downloads[89] 	11909
scalar tree_5_3_u10_r1_network.client[89] 	avg_time[89] 	0.005246431463
scalar tree_5_3_u10_r1_network.client[90] 	hdistance[90] 	3.1007290706444
scalar tree_5_3_u10_r1_network.client[90] 	downloads[90] 	11933
scalar tree_5_3_u10_r1_network.client[90] 	avg_time[90] 	0.005181259069
scalar tree_5_3_u10_r1_network.client[91] 	hdistance[91] 	3.0453675185216
scalar tree_5_3_u10_r1_network.client[91] 	downloads[91] 	12013
scalar tree_5_3_u10_r1_network.client[91] 	avg_time[91] 	0.005109961212
scalar tree_5_3_u10_r1_network.client[92] 	hdistance[92] 	3.095073608027
scalar tree_5_3_u10_r1_network.client[92] 	downloads[92] 	12159
scalar tree_5_3_u10_r1_network.client[92] 	avg_time[92] 	0.005178924749
scalar tree_5_3_u10_r1_network.client[93] 	hdistance[93] 	3.182398805574
scalar tree_5_3_u10_r1_network.client[93] 	downloads[93] 	12056
scalar tree_5_3_u10_r1_network.client[93] 	avg_time[93] 	0.005343308868
scalar tree_5_3_u10_r1_network.client[94] 	hdistance[94] 	3.1905001678416
scalar tree_5_3_u10_r1_network.client[94] 	downloads[94] 	11916
scalar tree_5_3_u10_r1_network.client[94] 	avg_time[94] 	0.005374882473
scalar tree_5_3_u10_r1_network.client[95] 	hdistance[95] 	3.0935853474952
scalar tree_5_3_u10_r1_network.client[95] 	downloads[95] 	11957
scalar tree_5_3_u10_r1_network.client[95] 	avg_time[95] 	0.00518407327
scalar tree_5_3_u10_r1_network.client[96] 	hdistance[96] 	3.1155295102553
scalar tree_5_3_u10_r1_network.client[96] 	downloads[96] 	11945
scalar tree_5_3_u10_r1_network.client[96] 	avg_time[96] 	0.005213056858
scalar tree_5_3_u10_r1_network.client[97] 	hdistance[97] 	3.0691659646167
scalar tree_5_3_u10_r1_network.client[97] 	downloads[97] 	11870
scalar tree_5_3_u10_r1_network.client[97] 	avg_time[97] 	0.005156457168
scalar tree_5_3_u10_r1_network.client[98] 	hdistance[98] 	3.1206537146669
scalar tree_5_3_u10_r1_network.client[98] 	downloads[98] 	11993
scalar tree_5_3_u10_r1_network.client[98] 	avg_time[98] 	0.005243940582
scalar tree_5_3_u10_r1_network.client[99] 	hdistance[99] 	3.0672233468286
scalar tree_5_3_u10_r1_network.client[99] 	downloads[99] 	11856
scalar tree_5_3_u10_r1_network.client[99] 	avg_time[99] 	0.005134173674
scalar tree_5_3_u10_r1_network.client[100] 	hdistance[100] 	3.0969089390142
scalar tree_5_3_u10_r1_network.client[100] 	downloads[100] 	11970
scalar tree_5_3_u10_r1_network.client[100] 	avg_time[100] 	0.005185627739
scalar tree_5_3_u10_r1_network.client[101] 	hdistance[101] 	3.084041312677
scalar tree_5_3_u10_r1_network.client[101] 	downloads[101] 	12006
scalar tree_5_3_u10_r1_network.client[101] 	avg_time[101] 	0.005160593616
scalar tree_5_3_u10_r1_network.client[102] 	hdistance[102] 	3.1479727484214
scalar tree_5_3_u10_r1_network.client[102] 	downloads[102] 	12036
scalar tree_5_3_u10_r1_network.client[102] 	avg_time[102] 	0.005276910874
scalar tree_5_3_u10_r1_network.client[103] 	hdistance[103] 	3.1552784564833
scalar tree_5_3_u10_r1_network.client[103] 	downloads[103] 	11869
scalar tree_5_3_u10_r1_network.client[103] 	avg_time[103] 	0.005300097106
scalar tree_5_3_u10_r1_network.client[104] 	hdistance[104] 	3.0698825503356
scalar tree_5_3_u10_r1_network.client[104] 	downloads[104] 	11920
scalar tree_5_3_u10_r1_network.client[104] 	avg_time[104] 	0.005150643145
scalar tree_5_3_u10_r1_network.client[105] 	hdistance[105] 	3.0665095133861
scalar tree_5_3_u10_r1_network.client[105] 	downloads[105] 	11878
scalar tree_5_3_u10_r1_network.client[105] 	avg_time[105] 	0.005145139285
scalar tree_5_3_u10_r1_network.client[106] 	hdistance[106] 	3.0857472021067
scalar tree_5_3_u10_r1_network.client[106] 	downloads[106] 	12152
scalar tree_5_3_u10_r1_network.client[106] 	avg_time[106] 	0.005172478856
scalar tree_5_3_u10_r1_network.client[107] 	hdistance[107] 	3.1607889018887
scalar tree_5_3_u10_r1_network.client[107] 	downloads[107] 	11966
scalar tree_5_3_u10_r1_network.client[107] 	avg_time[107] 	0.005311480565
scalar tree_5_3_u10_r1_network.client[108] 	hdistance[108] 	3.0746193320434
scalar tree_5_3_u10_r1_network.client[108] 	downloads[108] 	11887
scalar tree_5_3_u10_r1_network.client[108] 	avg_time[108] 	0.005147744553
scalar tree_5_3_u10_r1_network.client[109] 	hdistance[109] 	3.0875784190715
scalar tree_5_3_u10_r1_network.client[109] 	downloads[109] 	11955
scalar tree_5_3_u10_r1_network.client[109] 	avg_time[109] 	0.005169502539
scalar tree_5_3_u10_r1_network.client[110] 	hdistance[110] 	3.0719633943428
scalar tree_5_3_u10_r1_network.client[110] 	downloads[110] 	12020
scalar tree_5_3_u10_r1_network.client[110] 	avg_time[110] 	0.005143424603
scalar tree_5_3_u10_r1_network.client[111] 	hdistance[111] 	3.1583781547373
scalar tree_5_3_u10_r1_network.client[111] 	downloads[111] 	12085
scalar tree_5_3_u10_r1_network.client[111] 	avg_time[111] 	0.005301035501
scalar tree_5_3_u10_r1_network.client[112] 	hdistance[112] 	3.1530082546166
scalar tree_5_3_u10_r1_network.client[112] 	downloads[112] 	11751
scalar tree_5_3_u10_r1_network.client[112] 	avg_time[112] 	0.005295304456
scalar tree_5_3_u10_r1_network.client[113] 	hdistance[113] 	3.0668728579788
scalar tree_5_3_u10_r1_network.client[113] 	downloads[113] 	11963
scalar tree_5_3_u10_r1_network.client[113] 	avg_time[113] 	0.00514065439
scalar tree_5_3_u10_r1_network.client[114] 	hdistance[114] 	3.0667943699509
scalar tree_5_3_u10_r1_network.client[114] 	downloads[114] 	12007
scalar tree_5_3_u10_r1_network.client[114] 	avg_time[114] 	0.005135001566
scalar tree_5_3_u10_r1_network.client[115] 	hdistance[115] 	3.0593360995851
scalar tree_5_3_u10_r1_network.client[115] 	downloads[115] 	12050
scalar tree_5_3_u10_r1_network.client[115] 	avg_time[115] 	0.005124810269
scalar tree_5_3_u10_r1_network.client[116] 	hdistance[116] 	3.1209263854425
scalar tree_5_3_u10_r1_network.client[116] 	downloads[116] 	12090
scalar tree_5_3_u10_r1_network.client[116] 	avg_time[116] 	0.005246977957
scalar tree_5_3_u10_r1_network.client[117] 	hdistance[117] 	3.1021220159151
scalar tree_5_3_u10_r1_network.client[117] 	downloads[117] 	12064
scalar tree_5_3_u10_r1_network.client[117] 	avg_time[117] 	0.005184678657
scalar tree_5_3_u10_r1_network.client[118] 	hdistance[118] 	3.1290538841867
scalar tree_5_3_u10_r1_network.client[118] 	downloads[118] 	11933
scalar tree_5_3_u10_r1_network.client[118] 	avg_time[118] 	0.005246456412
scalar tree_5_3_u10_r1_network.client[119] 	hdistance[119] 	3.0681687832855
scalar tree_5_3_u10_r1_network.client[119] 	downloads[119] 	12205
scalar tree_5_3_u10_r1_network.client[119] 	avg_time[119] 	0.005134686449
scalar tree_5_3_u10_r1_network.client[120] 	hdistance[120] 	3.214711062652
scalar tree_5_3_u10_r1_network.client[120] 	downloads[120] 	11923
scalar tree_5_3_u10_r1_network.client[120] 	avg_time[120] 	0.005364250993
