version 2
run General-24-20160823-21:56:39-9702
attr D ffc0.1
attr F spr
attr R lru
attr a 0.9
attr configname General
attr datetime 20160823-21:56:39
attr experiment General
attr inifile hw5115/scenario_C/omnetp.ini
attr iterationvars "$net=dtelecom, $rep=3, $a=0.9, $F=spr, $D=ffc0.1, $R=lru, $window=60, $variance=0.05, $mytime=600"
attr iterationvars2 "$net=dtelecom, $rep=3, $a=0.9, $F=spr, $D=ffc0.1, $R=lru, $window=60, $variance=0.05, $mytime=600, $repetition=0"
attr measurement "$net=dtelecom, $rep=3, $a=0.9, $F=spr, $D=ffc0.1, $R=lru, $window=60, $variance=0.05, $mytime=600"
attr mytime 600
attr net dtelecom
attr network networks.${net=dtelecom}_network
attr processid 9702
attr rep 3
attr repetition 0
attr replication #0
attr resultdir results
attr runnumber 24
attr seedset 3
attr variance 0.05
attr window 60

scalar . 	a 	0.9
scalar . 	mytime 	600
scalar . 	rep 	3
scalar . 	variance 	0.05
scalar . 	window 	60
scalar dtelecom_network.content_distribution 	repo-0 	9
scalar dtelecom_network.content_distribution 	repo-1 	15
scalar dtelecom_network.content_distribution 	repo-2 	64
scalar dtelecom_network.content_distribution 	repo-3 	28
scalar dtelecom_network.content_distribution 	repo-4 	29
scalar dtelecom_network.content_distribution 	repo-5 	8
scalar dtelecom_network.content_distribution 	repo-6 	0
scalar dtelecom_network.content_distribution 	repo-7 	40
scalar dtelecom_network.content_distribution 	repo-8 	36
scalar dtelecom_network.content_distribution 	repo-9 	16
scalar dtelecom_network.content_distribution 	repo-10 	11
scalar dtelecom_network.content_distribution 	repo-11 	54
scalar dtelecom_network.content_distribution 	repo-12 	62
scalar dtelecom_network.content_distribution 	repo-13 	33
scalar dtelecom_network.content_distribution 	repo-14 	49
scalar dtelecom_network.content_distribution 	repo-15 	51
scalar dtelecom_network.content_distribution 	client-0 	46
scalar dtelecom_network.content_distribution 	client-1 	30
scalar dtelecom_network.content_distribution 	client-2 	8
scalar dtelecom_network.content_distribution 	client-3 	49
scalar dtelecom_network.content_distribution 	client-4 	66
scalar dtelecom_network.content_distribution 	client-5 	58
scalar dtelecom_network.content_distribution 	client-6 	32
scalar dtelecom_network.content_distribution 	client-7 	40
scalar dtelecom_network.content_distribution 	client-8 	42
scalar dtelecom_network.content_distribution 	client-9 	45
scalar dtelecom_network.content_distribution 	client-10 	33
scalar dtelecom_network.content_distribution 	client-11 	28
scalar dtelecom_network.content_distribution 	client-12 	3
scalar dtelecom_network.content_distribution 	client-13 	57
scalar dtelecom_network.content_distribution 	client-14 	50
scalar dtelecom_network.content_distribution 	client-15 	17
scalar dtelecom_network.content_distribution 	client-16 	59
scalar dtelecom_network.content_distribution 	client-17 	48
scalar dtelecom_network.content_distribution 	client-18 	23
scalar dtelecom_network.content_distribution 	client-19 	22
scalar dtelecom_network.content_distribution 	client-20 	67
scalar dtelecom_network.content_distribution 	client-21 	62
scalar dtelecom_network.content_distribution 	client-22 	56
scalar dtelecom_network.content_distribution 	client-23 	55
scalar dtelecom_network.content_distribution 	client-24 	53
scalar dtelecom_network.content_distribution 	client-25 	36
scalar dtelecom_network.content_distribution 	client-26 	51
scalar dtelecom_network.content_distribution 	client-27 	37
scalar dtelecom_network.content_distribution 	client-28 	54
scalar dtelecom_network.content_distribution 	client-29 	4
scalar dtelecom_network.content_distribution 	client-30 	31
scalar dtelecom_network.content_distribution 	client-31 	9
scalar dtelecom_network.content_distribution 	repo-0_card 	6258
scalar dtelecom_network.content_distribution 	repo-0_price 	0
scalar dtelecom_network.content_distribution 	repo-1_card 	6296
scalar dtelecom_network.content_distribution 	repo-1_price 	0
scalar dtelecom_network.content_distribution 	repo-2_card 	6227
scalar dtelecom_network.content_distribution 	repo-2_price 	0
scalar dtelecom_network.content_distribution 	repo-3_card 	6343
scalar dtelecom_network.content_distribution 	repo-3_price 	0
scalar dtelecom_network.content_distribution 	repo-4_card 	6235
scalar dtelecom_network.content_distribution 	repo-4_price 	0
scalar dtelecom_network.content_distribution 	repo-5_card 	6253
scalar dtelecom_network.content_distribution 	repo-5_price 	0
scalar dtelecom_network.content_distribution 	repo-6_card 	6211
scalar dtelecom_network.content_distribution 	repo-6_price 	0
scalar dtelecom_network.content_distribution 	repo-7_card 	6205
scalar dtelecom_network.content_distribution 	repo-7_price 	0
scalar dtelecom_network.content_distribution 	repo-8_card 	6107
scalar dtelecom_network.content_distribution 	repo-8_price 	0
scalar dtelecom_network.content_distribution 	repo-9_card 	6255
scalar dtelecom_network.content_distribution 	repo-9_price 	0
scalar dtelecom_network.content_distribution 	repo-10_card 	6250
scalar dtelecom_network.content_distribution 	repo-10_price 	0
scalar dtelecom_network.content_distribution 	repo-11_card 	6303
scalar dtelecom_network.content_distribution 	repo-11_price 	0
scalar dtelecom_network.content_distribution 	repo-12_card 	6400
scalar dtelecom_network.content_distribution 	repo-12_price 	0
scalar dtelecom_network.content_distribution 	repo-13_card 	6213
scalar dtelecom_network.content_distribution 	repo-13_price 	0
scalar dtelecom_network.content_distribution 	repo-14_card 	6238
scalar dtelecom_network.content_distribution 	repo-14_price 	0
scalar dtelecom_network.content_distribution 	repo-15_card 	6206
scalar dtelecom_network.content_distribution 	repo-15_price 	0
scalar dtelecom_network.statistics 	stabilization_time 	35084.6
scalar dtelecom_network.statistics 	p_hit 	0.25453108586464
scalar dtelecom_network.statistics 	interests 	13252.073529412
scalar dtelecom_network.statistics 	data 	7604.5882352941
scalar dtelecom_network.statistics 	hdistance 	1.8544238247253
scalar dtelecom_network.statistics 	avg_time 	0.020784837556
scalar dtelecom_network.statistics 	downloads 	383993
scalar dtelecom_network.statistics 	total_cost 	0
scalar dtelecom_network.statistics 	total_replicas 	100000
scalar dtelecom_network.statistics 	inner_hit 	0.49286835957947
scalar dtelecom_network.node[0].core_layer 	interests[0] 	16028
scalar dtelecom_network.node[0].core_layer 	repo_load[0] 	11579
scalar dtelecom_network.node[0].core_layer 	data[0] 	0
scalar dtelecom_network.node[0].core_layer 	repo_int[0] 	194735
scalar dtelecom_network.node[0].content_store 	p_hit[0] 	0.27757674070377
scalar dtelecom_network.node[0].content_store 	hits[0] 	4449
scalar dtelecom_network.node[0].content_store 	misses[0] 	11579
scalar dtelecom_network.node[0].content_store 	decision_yes[0] 	62
scalar dtelecom_network.node[0].content_store 	decision_no[0] 	11517
scalar dtelecom_network.node[0].content_store 	decision_ratio[0] 	0.0053545211158131
scalar dtelecom_network.node[1].core_layer 	interests[1] 	195083
scalar dtelecom_network.node[1].core_layer 	data[1] 	181495
scalar dtelecom_network.node[1].content_store 	p_hit[1] 	0.069519127755878
scalar dtelecom_network.node[1].content_store 	hits[1] 	13562
scalar dtelecom_network.node[1].content_store 	misses[1] 	181521
scalar dtelecom_network.node[1].content_store 	decision_yes[1] 	228
scalar dtelecom_network.node[1].content_store 	decision_no[1] 	181267
scalar dtelecom_network.node[1].content_store 	decision_ratio[1] 	0.0012562329540759
scalar dtelecom_network.node[2].core_layer 	interests[2] 	2155
scalar dtelecom_network.node[2].core_layer 	data[2] 	1819
scalar dtelecom_network.node[2].content_store 	p_hit[2] 	0.15591647331787
scalar dtelecom_network.node[2].content_store 	hits[2] 	336
scalar dtelecom_network.node[2].content_store 	misses[2] 	1819
scalar dtelecom_network.node[2].content_store 	decision_yes[2] 	6
scalar dtelecom_network.node[2].content_store 	decision_no[2] 	1813
scalar dtelecom_network.node[2].content_store 	decision_ratio[2] 	0.0032985156679494
scalar dtelecom_network.node[3].core_layer 	interests[3] 	12219
scalar dtelecom_network.node[3].core_layer 	data[3] 	8820
scalar dtelecom_network.node[3].content_store 	p_hit[3] 	0.27817333660692
scalar dtelecom_network.node[3].content_store 	hits[3] 	3399
scalar dtelecom_network.node[3].content_store 	misses[3] 	8820
scalar dtelecom_network.node[3].content_store 	decision_yes[3] 	16
scalar dtelecom_network.node[3].content_store 	decision_no[3] 	8804
scalar dtelecom_network.node[3].content_store 	decision_ratio[3] 	0.0018140589569161
scalar dtelecom_network.node[4].core_layer 	interests[4] 	46085
scalar dtelecom_network.node[4].core_layer 	data[4] 	38363
scalar dtelecom_network.node[4].content_store 	p_hit[4] 	0.16712596289465
scalar dtelecom_network.node[4].content_store 	hits[4] 	7702
scalar dtelecom_network.node[4].content_store 	misses[4] 	38383
scalar dtelecom_network.node[4].content_store 	decision_yes[4] 	48
scalar dtelecom_network.node[4].content_store 	decision_no[4] 	38315
scalar dtelecom_network.node[4].content_store 	decision_ratio[4] 	0.0012512055887183
scalar dtelecom_network.node[5].core_layer 	interests[5] 	0
scalar dtelecom_network.node[5].core_layer 	data[5] 	0
scalar dtelecom_network.node[5].content_store 	p_hit[5] 	-nan
scalar dtelecom_network.node[5].content_store 	hits[5] 	0
scalar dtelecom_network.node[5].content_store 	misses[5] 	0
scalar dtelecom_network.node[5].content_store 	decision_yes[5] 	0
scalar dtelecom_network.node[5].content_store 	decision_no[5] 	0
scalar dtelecom_network.node[5].content_store 	decision_ratio[5] 	0
scalar dtelecom_network.node[6].core_layer 	interests[6] 	0
scalar dtelecom_network.node[6].core_layer 	data[6] 	0
scalar dtelecom_network.node[6].content_store 	p_hit[6] 	-nan
scalar dtelecom_network.node[6].content_store 	hits[6] 	0
scalar dtelecom_network.node[6].content_store 	misses[6] 	0
scalar dtelecom_network.node[6].content_store 	decision_yes[6] 	0
scalar dtelecom_network.node[6].content_store 	decision_no[6] 	0
scalar dtelecom_network.node[6].content_store 	decision_ratio[6] 	0
scalar dtelecom_network.node[7].core_layer 	interests[7] 	0
scalar dtelecom_network.node[7].core_layer 	data[7] 	0
scalar dtelecom_network.node[7].content_store 	p_hit[7] 	-nan
scalar dtelecom_network.node[7].content_store 	hits[7] 	0
scalar dtelecom_network.node[7].content_store 	misses[7] 	0
scalar dtelecom_network.node[7].content_store 	decision_yes[7] 	0
scalar dtelecom_network.node[7].content_store 	decision_no[7] 	0
scalar dtelecom_network.node[7].content_store 	decision_ratio[7] 	0
scalar dtelecom_network.node[8].core_layer 	interests[8] 	28510
scalar dtelecom_network.node[8].core_layer 	repo_load[8] 	12482
scalar dtelecom_network.node[8].core_layer 	data[8] 	9036
scalar dtelecom_network.node[8].content_store 	p_hit[8] 	0.24524728165556
scalar dtelecom_network.node[8].content_store 	hits[8] 	6992
scalar dtelecom_network.node[8].content_store 	misses[8] 	21518
scalar dtelecom_network.node[8].content_store 	decision_yes[8] 	53
scalar dtelecom_network.node[8].content_store 	decision_no[8] 	21465
scalar dtelecom_network.node[8].content_store 	decision_ratio[8] 	0.0024630541871921
scalar dtelecom_network.node[9].core_layer 	interests[9] 	31562
scalar dtelecom_network.node[9].core_layer 	repo_load[9] 	12895
scalar dtelecom_network.node[9].core_layer 	data[9] 	10189
scalar dtelecom_network.node[9].content_store 	p_hit[9] 	0.26858247259363
scalar dtelecom_network.node[9].content_store 	hits[9] 	8477
scalar dtelecom_network.node[9].content_store 	misses[9] 	23085
scalar dtelecom_network.node[9].content_store 	decision_yes[9] 	49
scalar dtelecom_network.node[9].content_store 	decision_no[9] 	23035
scalar dtelecom_network.node[9].content_store 	decision_ratio[9] 	0.0021226823774043
scalar dtelecom_network.node[10].core_layer 	interests[10] 	0
scalar dtelecom_network.node[10].core_layer 	data[10] 	0
scalar dtelecom_network.node[10].content_store 	p_hit[10] 	-nan
scalar dtelecom_network.node[10].content_store 	hits[10] 	0
scalar dtelecom_network.node[10].content_store 	misses[10] 	0
scalar dtelecom_network.node[10].content_store 	decision_yes[10] 	0
scalar dtelecom_network.node[10].content_store 	decision_no[10] 	0
scalar dtelecom_network.node[10].content_store 	decision_ratio[10] 	0
scalar dtelecom_network.node[11].core_layer 	interests[11] 	16464
scalar dtelecom_network.node[11].core_layer 	repo_load[11] 	11819
scalar dtelecom_network.node[11].core_layer 	data[11] 	0
scalar dtelecom_network.node[11].content_store 	p_hit[11] 	0.28213070942663
scalar dtelecom_network.node[11].content_store 	hits[11] 	4645
scalar dtelecom_network.node[11].content_store 	misses[11] 	11819
scalar dtelecom_network.node[11].content_store 	decision_yes[11] 	46
scalar dtelecom_network.node[11].content_store 	decision_no[11] 	11773
scalar dtelecom_network.node[11].content_store 	decision_ratio[11] 	0.0038920382435062
scalar dtelecom_network.node[12].core_layer 	interests[12] 	0
scalar dtelecom_network.node[12].core_layer 	data[12] 	0
scalar dtelecom_network.node[12].content_store 	p_hit[12] 	-nan
scalar dtelecom_network.node[12].content_store 	hits[12] 	0
scalar dtelecom_network.node[12].content_store 	misses[12] 	0
scalar dtelecom_network.node[12].content_store 	decision_yes[12] 	0
scalar dtelecom_network.node[12].content_store 	decision_no[12] 	0
scalar dtelecom_network.node[12].content_store 	decision_ratio[12] 	0
scalar dtelecom_network.node[13].core_layer 	interests[13] 	0
scalar dtelecom_network.node[13].core_layer 	data[13] 	0
scalar dtelecom_network.node[13].content_store 	p_hit[13] 	-nan
scalar dtelecom_network.node[13].content_store 	hits[13] 	0
scalar dtelecom_network.node[13].content_store 	misses[13] 	0
scalar dtelecom_network.node[13].content_store 	decision_yes[13] 	0
scalar dtelecom_network.node[13].content_store 	decision_no[13] 	0
scalar dtelecom_network.node[13].content_store 	decision_ratio[13] 	0
scalar dtelecom_network.node[14].core_layer 	interests[14] 	0
scalar dtelecom_network.node[14].core_layer 	data[14] 	0
scalar dtelecom_network.node[14].content_store 	p_hit[14] 	-nan
scalar dtelecom_network.node[14].content_store 	hits[14] 	0
scalar dtelecom_network.node[14].content_store 	misses[14] 	0
scalar dtelecom_network.node[14].content_store 	decision_yes[14] 	0
scalar dtelecom_network.node[14].content_store 	decision_no[14] 	0
scalar dtelecom_network.node[14].content_store 	decision_ratio[14] 	0
scalar dtelecom_network.node[15].core_layer 	interests[15] 	16207
scalar dtelecom_network.node[15].core_layer 	repo_load[15] 	11687
scalar dtelecom_network.node[15].core_layer 	data[15] 	0
scalar dtelecom_network.node[15].content_store 	p_hit[15] 	0.27889183686062
scalar dtelecom_network.node[15].content_store 	hits[15] 	4520
scalar dtelecom_network.node[15].content_store 	misses[15] 	11687
scalar dtelecom_network.node[15].content_store 	decision_yes[15] 	48
scalar dtelecom_network.node[15].content_store 	decision_no[15] 	11639
scalar dtelecom_network.node[15].content_store 	decision_ratio[15] 	0.0041071275776504
scalar dtelecom_network.node[16].core_layer 	interests[16] 	18088
scalar dtelecom_network.node[16].core_layer 	repo_load[16] 	12813
scalar dtelecom_network.node[16].core_layer 	data[16] 	0
scalar dtelecom_network.node[16].content_store 	p_hit[16] 	0.29162980981866
scalar dtelecom_network.node[16].content_store 	hits[16] 	5275
scalar dtelecom_network.node[16].content_store 	misses[16] 	12813
scalar dtelecom_network.node[16].content_store 	decision_yes[16] 	79
scalar dtelecom_network.node[16].content_store 	decision_no[16] 	12734
scalar dtelecom_network.node[16].content_store 	decision_ratio[16] 	0.0061656130492469
scalar dtelecom_network.node[17].core_layer 	interests[17] 	11917
scalar dtelecom_network.node[17].core_layer 	data[17] 	8572
scalar dtelecom_network.node[17].content_store 	p_hit[17] 	0.28060753545355
scalar dtelecom_network.node[17].content_store 	hits[17] 	3344
scalar dtelecom_network.node[17].content_store 	misses[17] 	8573
scalar dtelecom_network.node[17].content_store 	decision_yes[17] 	5
scalar dtelecom_network.node[17].content_store 	decision_no[17] 	8567
scalar dtelecom_network.node[17].content_store 	decision_ratio[17] 	0.00058329444703686
scalar dtelecom_network.node[18].core_layer 	interests[18] 	0
scalar dtelecom_network.node[18].core_layer 	data[18] 	0
scalar dtelecom_network.node[18].content_store 	p_hit[18] 	-nan
scalar dtelecom_network.node[18].content_store 	hits[18] 	0
scalar dtelecom_network.node[18].content_store 	misses[18] 	0
scalar dtelecom_network.node[18].content_store 	decision_yes[18] 	0
scalar dtelecom_network.node[18].content_store 	decision_no[18] 	0
scalar dtelecom_network.node[18].content_store 	decision_ratio[18] 	0
scalar dtelecom_network.node[19].core_layer 	interests[19] 	0
scalar dtelecom_network.node[19].core_layer 	data[19] 	0
scalar dtelecom_network.node[19].content_store 	p_hit[19] 	-nan
scalar dtelecom_network.node[19].content_store 	hits[19] 	0
scalar dtelecom_network.node[19].content_store 	misses[19] 	0
scalar dtelecom_network.node[19].content_store 	decision_yes[19] 	0
scalar dtelecom_network.node[19].content_store 	decision_no[19] 	0
scalar dtelecom_network.node[19].content_store 	decision_ratio[19] 	0
scalar dtelecom_network.node[20].core_layer 	interests[20] 	0
scalar dtelecom_network.node[20].core_layer 	data[20] 	0
scalar dtelecom_network.node[20].content_store 	p_hit[20] 	-nan
scalar dtelecom_network.node[20].content_store 	hits[20] 	0
scalar dtelecom_network.node[20].content_store 	misses[20] 	0
scalar dtelecom_network.node[20].content_store 	decision_yes[20] 	0
scalar dtelecom_network.node[20].content_store 	decision_no[20] 	0
scalar dtelecom_network.node[20].content_store 	decision_ratio[20] 	0
scalar dtelecom_network.node[21].core_layer 	interests[21] 	0
scalar dtelecom_network.node[21].core_layer 	data[21] 	0
scalar dtelecom_network.node[21].content_store 	p_hit[21] 	-nan
scalar dtelecom_network.node[21].content_store 	hits[21] 	0
scalar dtelecom_network.node[21].content_store 	misses[21] 	0
scalar dtelecom_network.node[21].content_store 	decision_yes[21] 	0
scalar dtelecom_network.node[21].content_store 	decision_no[21] 	0
scalar dtelecom_network.node[21].content_store 	decision_ratio[21] 	0
scalar dtelecom_network.node[22].core_layer 	interests[22] 	11966
scalar dtelecom_network.node[22].core_layer 	data[22] 	8590
scalar dtelecom_network.node[22].content_store 	p_hit[22] 	0.28204913922781
scalar dtelecom_network.node[22].content_store 	hits[22] 	3375
scalar dtelecom_network.node[22].content_store 	misses[22] 	8591
scalar dtelecom_network.node[22].content_store 	decision_yes[22] 	8
scalar dtelecom_network.node[22].content_store 	decision_no[22] 	8582
scalar dtelecom_network.node[22].content_store 	decision_ratio[22] 	0.00093131548311991
scalar dtelecom_network.node[23].core_layer 	interests[23] 	38415
scalar dtelecom_network.node[23].core_layer 	data[23] 	30874
scalar dtelecom_network.node[23].content_store 	p_hit[23] 	0.19630352726799
scalar dtelecom_network.node[23].content_store 	hits[23] 	7541
scalar dtelecom_network.node[23].content_store 	misses[23] 	30874
scalar dtelecom_network.node[23].content_store 	decision_yes[23] 	49
scalar dtelecom_network.node[23].content_store 	decision_no[23] 	30825
scalar dtelecom_network.node[23].content_store 	decision_ratio[23] 	0.00158709593833
scalar dtelecom_network.node[24].core_layer 	interests[24] 	0
scalar dtelecom_network.node[24].core_layer 	data[24] 	0
scalar dtelecom_network.node[24].content_store 	p_hit[24] 	-nan
scalar dtelecom_network.node[24].content_store 	hits[24] 	0
scalar dtelecom_network.node[24].content_store 	misses[24] 	0
scalar dtelecom_network.node[24].content_store 	decision_yes[24] 	0
scalar dtelecom_network.node[24].content_store 	decision_no[24] 	0
scalar dtelecom_network.node[24].content_store 	decision_ratio[24] 	0
scalar dtelecom_network.node[25].core_layer 	interests[25] 	0
scalar dtelecom_network.node[25].core_layer 	data[25] 	0
scalar dtelecom_network.node[25].content_store 	p_hit[25] 	-nan
scalar dtelecom_network.node[25].content_store 	hits[25] 	0
scalar dtelecom_network.node[25].content_store 	misses[25] 	0
scalar dtelecom_network.node[25].content_store 	decision_yes[25] 	0
scalar dtelecom_network.node[25].content_store 	decision_no[25] 	0
scalar dtelecom_network.node[25].content_store 	decision_ratio[25] 	0
scalar dtelecom_network.node[26].core_layer 	interests[26] 	507
scalar dtelecom_network.node[26].core_layer 	data[26] 	353
scalar dtelecom_network.node[26].content_store 	p_hit[26] 	0.30374753451677
scalar dtelecom_network.node[26].content_store 	hits[26] 	154
scalar dtelecom_network.node[26].content_store 	misses[26] 	353
scalar dtelecom_network.node[26].content_store 	decision_yes[26] 	2
scalar dtelecom_network.node[26].content_store 	decision_no[26] 	351
scalar dtelecom_network.node[26].content_store 	decision_ratio[26] 	0.0056657223796034
scalar dtelecom_network.node[27].core_layer 	interests[27] 	0
scalar dtelecom_network.node[27].core_layer 	data[27] 	0
scalar dtelecom_network.node[27].content_store 	p_hit[27] 	-nan
scalar dtelecom_network.node[27].content_store 	hits[27] 	0
scalar dtelecom_network.node[27].content_store 	misses[27] 	0
scalar dtelecom_network.node[27].content_store 	decision_yes[27] 	0
scalar dtelecom_network.node[27].content_store 	decision_no[27] 	0
scalar dtelecom_network.node[27].content_store 	decision_ratio[27] 	0
scalar dtelecom_network.node[28].core_layer 	interests[28] 	28032
scalar dtelecom_network.node[28].core_layer 	repo_load[28] 	12614
scalar dtelecom_network.node[28].core_layer 	data[28] 	9158
scalar dtelecom_network.node[28].content_store 	p_hit[28] 	0.22331621004566
scalar dtelecom_network.node[28].content_store 	hits[28] 	6260
scalar dtelecom_network.node[28].content_store 	misses[28] 	21772
scalar dtelecom_network.node[28].content_store 	decision_yes[28] 	59
scalar dtelecom_network.node[28].content_store 	decision_no[28] 	21713
scalar dtelecom_network.node[28].content_store 	decision_ratio[28] 	0.0027099026272276
scalar dtelecom_network.node[29].core_layer 	interests[29] 	15587
scalar dtelecom_network.node[29].core_layer 	repo_load[29] 	11422
scalar dtelecom_network.node[29].core_layer 	data[29] 	0
scalar dtelecom_network.node[29].content_store 	p_hit[29] 	0.26720985436582
scalar dtelecom_network.node[29].content_store 	hits[29] 	4165
scalar dtelecom_network.node[29].content_store 	misses[29] 	11422
scalar dtelecom_network.node[29].content_store 	decision_yes[29] 	62
scalar dtelecom_network.node[29].content_store 	decision_no[29] 	11360
scalar dtelecom_network.node[29].content_store 	decision_ratio[29] 	0.0054281211696726
scalar dtelecom_network.node[30].core_layer 	interests[30] 	11963
scalar dtelecom_network.node[30].core_layer 	data[30] 	8578
scalar dtelecom_network.node[30].content_store 	p_hit[30] 	0.28295578032266
scalar dtelecom_network.node[30].content_store 	hits[30] 	3385
scalar dtelecom_network.node[30].content_store 	misses[30] 	8578
scalar dtelecom_network.node[30].content_store 	decision_yes[30] 	9
scalar dtelecom_network.node[30].content_store 	decision_no[30] 	8569
scalar dtelecom_network.node[30].content_store 	decision_ratio[30] 	0.0010491956166939
scalar dtelecom_network.node[31].core_layer 	interests[31] 	12031
scalar dtelecom_network.node[31].core_layer 	data[31] 	8631
scalar dtelecom_network.node[31].content_store 	p_hit[31] 	0.28243703765273
scalar dtelecom_network.node[31].content_store 	hits[31] 	3398
scalar dtelecom_network.node[31].content_store 	misses[31] 	8633
scalar dtelecom_network.node[31].content_store 	decision_yes[31] 	10
scalar dtelecom_network.node[31].content_store 	decision_no[31] 	8621
scalar dtelecom_network.node[31].content_store 	decision_ratio[31] 	0.0011586142973004
scalar dtelecom_network.node[32].core_layer 	interests[32] 	12007
scalar dtelecom_network.node[32].core_layer 	data[32] 	8554
scalar dtelecom_network.node[32].content_store 	p_hit[32] 	0.28758224369118
scalar dtelecom_network.node[32].content_store 	hits[32] 	3453
scalar dtelecom_network.node[32].content_store 	misses[32] 	8554
scalar dtelecom_network.node[32].content_store 	decision_yes[32] 	13
scalar dtelecom_network.node[32].content_store 	decision_no[32] 	8541
scalar dtelecom_network.node[32].content_store 	decision_ratio[32] 	0.0015197568389058
scalar dtelecom_network.node[33].core_layer 	interests[33] 	28036
scalar dtelecom_network.node[33].core_layer 	repo_load[33] 	11821
scalar dtelecom_network.node[33].core_layer 	data[33] 	9023
scalar dtelecom_network.node[33].content_store 	p_hit[33] 	0.25645598516193
scalar dtelecom_network.node[33].content_store 	hits[33] 	7190
scalar dtelecom_network.node[33].content_store 	misses[33] 	20846
scalar dtelecom_network.node[33].content_store 	decision_yes[33] 	53
scalar dtelecom_network.node[33].content_store 	decision_no[33] 	20791
scalar dtelecom_network.node[33].content_store 	decision_ratio[33] 	0.0025426981385531
scalar dtelecom_network.node[34].core_layer 	interests[34] 	0
scalar dtelecom_network.node[34].core_layer 	data[34] 	0
scalar dtelecom_network.node[34].content_store 	p_hit[34] 	-nan
scalar dtelecom_network.node[34].content_store 	hits[34] 	0
scalar dtelecom_network.node[34].content_store 	misses[34] 	0
scalar dtelecom_network.node[34].content_store 	decision_yes[34] 	0
scalar dtelecom_network.node[34].content_store 	decision_no[34] 	0
scalar dtelecom_network.node[34].content_store 	decision_ratio[34] 	0
scalar dtelecom_network.node[35].core_layer 	interests[35] 	0
scalar dtelecom_network.node[35].core_layer 	data[35] 	0
scalar dtelecom_network.node[35].content_store 	p_hit[35] 	-nan
scalar dtelecom_network.node[35].content_store 	hits[35] 	0
scalar dtelecom_network.node[35].content_store 	misses[35] 	0
scalar dtelecom_network.node[35].content_store 	decision_yes[35] 	0
scalar dtelecom_network.node[35].content_store 	decision_no[35] 	0
scalar dtelecom_network.node[35].content_store 	decision_ratio[35] 	0
scalar dtelecom_network.node[36].core_layer 	interests[36] 	27632
scalar dtelecom_network.node[36].core_layer 	repo_load[36] 	12073
scalar dtelecom_network.node[36].core_layer 	data[36] 	8972
scalar dtelecom_network.node[36].content_store 	p_hit[36] 	0.23834684423856
scalar dtelecom_network.node[36].content_store 	hits[36] 	6586
scalar dtelecom_network.node[36].content_store 	misses[36] 	21046
scalar dtelecom_network.node[36].content_store 	decision_yes[36] 	56
scalar dtelecom_network.node[36].content_store 	decision_no[36] 	20989
scalar dtelecom_network.node[36].content_store 	decision_ratio[36] 	0.0026609645996674
scalar dtelecom_network.node[37].core_layer 	interests[37] 	12054
scalar dtelecom_network.node[37].core_layer 	data[37] 	8567
scalar dtelecom_network.node[37].content_store 	p_hit[37] 	0.28928156628505
scalar dtelecom_network.node[37].content_store 	hits[37] 	3487
scalar dtelecom_network.node[37].content_store 	misses[37] 	8567
scalar dtelecom_network.node[37].content_store 	decision_yes[37] 	11
scalar dtelecom_network.node[37].content_store 	decision_no[37] 	8556
scalar dtelecom_network.node[37].content_store 	decision_ratio[37] 	0.0012839967316447
scalar dtelecom_network.node[38].core_layer 	interests[38] 	0
scalar dtelecom_network.node[38].core_layer 	data[38] 	0
scalar dtelecom_network.node[38].content_store 	p_hit[38] 	-nan
scalar dtelecom_network.node[38].content_store 	hits[38] 	0
scalar dtelecom_network.node[38].content_store 	misses[38] 	0
scalar dtelecom_network.node[38].content_store 	decision_yes[38] 	0
scalar dtelecom_network.node[38].content_store 	decision_no[38] 	0
scalar dtelecom_network.node[38].content_store 	decision_ratio[38] 	0
scalar dtelecom_network.node[39].core_layer 	interests[39] 	0
scalar dtelecom_network.node[39].core_layer 	data[39] 	0
scalar dtelecom_network.node[39].content_store 	p_hit[39] 	-nan
scalar dtelecom_network.node[39].content_store 	hits[39] 	0
scalar dtelecom_network.node[39].content_store 	misses[39] 	0
scalar dtelecom_network.node[39].content_store 	decision_yes[39] 	0
scalar dtelecom_network.node[39].content_store 	decision_no[39] 	0
scalar dtelecom_network.node[39].content_store 	decision_ratio[39] 	0
scalar dtelecom_network.node[40].core_layer 	interests[40] 	29678
scalar dtelecom_network.node[40].core_layer 	repo_load[40] 	12758
scalar dtelecom_network.node[40].core_layer 	data[40] 	9833
scalar dtelecom_network.node[40].content_store 	p_hit[40] 	0.2387290248669
scalar dtelecom_network.node[40].content_store 	hits[40] 	7085
scalar dtelecom_network.node[40].content_store 	misses[40] 	22593
scalar dtelecom_network.node[40].content_store 	decision_yes[40] 	65
scalar dtelecom_network.node[40].content_store 	decision_no[40] 	22526
scalar dtelecom_network.node[40].content_store 	decision_ratio[40] 	0.00287725200301
scalar dtelecom_network.node[41].core_layer 	interests[41] 	0
scalar dtelecom_network.node[41].core_layer 	data[41] 	0
scalar dtelecom_network.node[41].content_store 	p_hit[41] 	-nan
scalar dtelecom_network.node[41].content_store 	hits[41] 	0
scalar dtelecom_network.node[41].content_store 	misses[41] 	0
scalar dtelecom_network.node[41].content_store 	decision_yes[41] 	0
scalar dtelecom_network.node[41].content_store 	decision_no[41] 	0
scalar dtelecom_network.node[41].content_store 	decision_ratio[41] 	0
scalar dtelecom_network.node[42].core_layer 	interests[42] 	11908
scalar dtelecom_network.node[42].core_layer 	data[42] 	8592
scalar dtelecom_network.node[42].content_store 	p_hit[42] 	0.27830030231777
scalar dtelecom_network.node[42].content_store 	hits[42] 	3314
scalar dtelecom_network.node[42].content_store 	misses[42] 	8594
scalar dtelecom_network.node[42].content_store 	decision_yes[42] 	12
scalar dtelecom_network.node[42].content_store 	decision_no[42] 	8580
scalar dtelecom_network.node[42].content_store 	decision_ratio[42] 	0.0013966480446927
scalar dtelecom_network.node[43].core_layer 	interests[43] 	0
scalar dtelecom_network.node[43].core_layer 	data[43] 	0
scalar dtelecom_network.node[43].content_store 	p_hit[43] 	-nan
scalar dtelecom_network.node[43].content_store 	hits[43] 	0
scalar dtelecom_network.node[43].content_store 	misses[43] 	0
scalar dtelecom_network.node[43].content_store 	decision_yes[43] 	0
scalar dtelecom_network.node[43].content_store 	decision_no[43] 	0
scalar dtelecom_network.node[43].content_store 	decision_ratio[43] 	0
scalar dtelecom_network.node[44].core_layer 	interests[44] 	0
scalar dtelecom_network.node[44].core_layer 	data[44] 	0
scalar dtelecom_network.node[44].content_store 	p_hit[44] 	-nan
scalar dtelecom_network.node[44].content_store 	hits[44] 	0
scalar dtelecom_network.node[44].content_store 	misses[44] 	0
scalar dtelecom_network.node[44].content_store 	decision_yes[44] 	0
scalar dtelecom_network.node[44].content_store 	decision_no[44] 	0
scalar dtelecom_network.node[44].content_store 	decision_ratio[44] 	0
scalar dtelecom_network.node[45].core_layer 	interests[45] 	11851
scalar dtelecom_network.node[45].core_layer 	data[45] 	8567
scalar dtelecom_network.node[45].content_store 	p_hit[45] 	0.27702303603071
scalar dtelecom_network.node[45].content_store 	hits[45] 	3283
scalar dtelecom_network.node[45].content_store 	misses[45] 	8568
scalar dtelecom_network.node[45].content_store 	decision_yes[45] 	13
scalar dtelecom_network.node[45].content_store 	decision_no[45] 	8554
scalar dtelecom_network.node[45].content_store 	decision_ratio[45] 	0.0015174506828528
scalar dtelecom_network.node[46].core_layer 	interests[46] 	12105
scalar dtelecom_network.node[46].core_layer 	data[46] 	8668
scalar dtelecom_network.node[46].content_store 	p_hit[46] 	0.28393225939694
scalar dtelecom_network.node[46].content_store 	hits[46] 	3437
scalar dtelecom_network.node[46].content_store 	misses[46] 	8668
scalar dtelecom_network.node[46].content_store 	decision_yes[46] 	21
scalar dtelecom_network.node[46].content_store 	decision_no[46] 	8647
scalar dtelecom_network.node[46].content_store 	decision_ratio[46] 	0.0024227041993539
scalar dtelecom_network.node[47].core_layer 	interests[47] 	0
scalar dtelecom_network.node[47].core_layer 	data[47] 	0
scalar dtelecom_network.node[47].content_store 	p_hit[47] 	-nan
scalar dtelecom_network.node[47].content_store 	hits[47] 	0
scalar dtelecom_network.node[47].content_store 	misses[47] 	0
scalar dtelecom_network.node[47].content_store 	decision_yes[47] 	0
scalar dtelecom_network.node[47].content_store 	decision_no[47] 	0
scalar dtelecom_network.node[47].content_store 	decision_ratio[47] 	0
scalar dtelecom_network.node[48].core_layer 	interests[48] 	12133
scalar dtelecom_network.node[48].core_layer 	data[48] 	8727
scalar dtelecom_network.node[48].content_store 	p_hit[48] 	0.28072199785708
scalar dtelecom_network.node[48].content_store 	hits[48] 	3406
scalar dtelecom_network.node[48].content_store 	misses[48] 	8727
scalar dtelecom_network.node[48].content_store 	decision_yes[48] 	7
scalar dtelecom_network.node[48].content_store 	decision_no[48] 	8720
scalar dtelecom_network.node[48].content_store 	decision_ratio[48] 	0.00080210839922081
scalar dtelecom_network.node[49].core_layer 	interests[49] 	28623
scalar dtelecom_network.node[49].core_layer 	repo_load[49] 	12534
scalar dtelecom_network.node[49].core_layer 	data[49] 	9077
scalar dtelecom_network.node[49].content_store 	p_hit[49] 	0.24497781504385
scalar dtelecom_network.node[49].content_store 	hits[49] 	7012
scalar dtelecom_network.node[49].content_store 	misses[49] 	21611
scalar dtelecom_network.node[49].content_store 	decision_yes[49] 	66
scalar dtelecom_network.node[49].content_store 	decision_no[49] 	21545
scalar dtelecom_network.node[49].content_store 	decision_ratio[49] 	0.0030540002776364
scalar dtelecom_network.node[50].core_layer 	interests[50] 	12176
scalar dtelecom_network.node[50].core_layer 	data[50] 	8704
scalar dtelecom_network.node[50].content_store 	p_hit[50] 	0.28506898817346
scalar dtelecom_network.node[50].content_store 	hits[50] 	3471
scalar dtelecom_network.node[50].content_store 	misses[50] 	8705
scalar dtelecom_network.node[50].content_store 	decision_yes[50] 	10
scalar dtelecom_network.node[50].content_store 	decision_no[50] 	8694
scalar dtelecom_network.node[50].content_store 	decision_ratio[50] 	0.0011488970588235
scalar dtelecom_network.node[51].core_layer 	interests[51] 	28023
scalar dtelecom_network.node[51].core_layer 	repo_load[51] 	12507
scalar dtelecom_network.node[51].core_layer 	data[51] 	8923
scalar dtelecom_network.node[51].content_store 	p_hit[51] 	0.23527102737037
scalar dtelecom_network.node[51].content_store 	hits[51] 	6593
scalar dtelecom_network.node[51].content_store 	misses[51] 	21430
scalar dtelecom_network.node[51].content_store 	decision_yes[51] 	53
scalar dtelecom_network.node[51].content_store 	decision_no[51] 	21377
scalar dtelecom_network.node[51].content_store 	decision_ratio[51] 	0.0024731684554363
scalar dtelecom_network.node[52].core_layer 	interests[52] 	0
scalar dtelecom_network.node[52].core_layer 	data[52] 	0
scalar dtelecom_network.node[52].content_store 	p_hit[52] 	-nan
scalar dtelecom_network.node[52].content_store 	hits[52] 	0
scalar dtelecom_network.node[52].content_store 	misses[52] 	0
scalar dtelecom_network.node[52].content_store 	decision_yes[52] 	0
scalar dtelecom_network.node[52].content_store 	decision_no[52] 	0
scalar dtelecom_network.node[52].content_store 	decision_ratio[52] 	0
scalar dtelecom_network.node[53].core_layer 	interests[53] 	12210
scalar dtelecom_network.node[53].core_layer 	data[53] 	8789
scalar dtelecom_network.node[53].content_store 	p_hit[53] 	0.28018018018018
scalar dtelecom_network.node[53].content_store 	hits[53] 	3421
scalar dtelecom_network.node[53].content_store 	misses[53] 	8789
scalar dtelecom_network.node[53].content_store 	decision_yes[53] 	6
scalar dtelecom_network.node[53].content_store 	decision_no[53] 	8783
scalar dtelecom_network.node[53].content_store 	decision_ratio[53] 	0.00068267152121971
scalar dtelecom_network.node[54].core_layer 	interests[54] 	28335
scalar dtelecom_network.node[54].core_layer 	repo_load[54] 	12448
scalar dtelecom_network.node[54].core_layer 	data[54] 	8811
scalar dtelecom_network.node[54].content_store 	p_hit[54] 	0.24969119463561
scalar dtelecom_network.node[54].content_store 	hits[54] 	7075
scalar dtelecom_network.node[54].content_store 	misses[54] 	21260
scalar dtelecom_network.node[54].content_store 	decision_yes[54] 	50
scalar dtelecom_network.node[54].content_store 	decision_no[54] 	21209
scalar dtelecom_network.node[54].content_store 	decision_ratio[54] 	0.0023519450585634
scalar dtelecom_network.node[55].core_layer 	interests[55] 	11966
scalar dtelecom_network.node[55].core_layer 	data[55] 	8622
scalar dtelecom_network.node[55].content_store 	p_hit[55] 	0.27945846565268
scalar dtelecom_network.node[55].content_store 	hits[55] 	3344
scalar dtelecom_network.node[55].content_store 	misses[55] 	8622
scalar dtelecom_network.node[55].content_store 	decision_yes[55] 	19
scalar dtelecom_network.node[55].content_store 	decision_no[55] 	8603
scalar dtelecom_network.node[55].content_store 	decision_ratio[55] 	0.0022036650429135
scalar dtelecom_network.node[56].core_layer 	interests[56] 	12056
scalar dtelecom_network.node[56].core_layer 	data[56] 	8624
scalar dtelecom_network.node[56].content_store 	p_hit[56] 	0.28458858659589
scalar dtelecom_network.node[56].content_store 	hits[56] 	3431
scalar dtelecom_network.node[56].content_store 	misses[56] 	8625
scalar dtelecom_network.node[56].content_store 	decision_yes[56] 	15
scalar dtelecom_network.node[56].content_store 	decision_no[56] 	8609
scalar dtelecom_network.node[56].content_store 	decision_ratio[56] 	0.001739332096475
scalar dtelecom_network.node[57].core_layer 	interests[57] 	11847
scalar dtelecom_network.node[57].core_layer 	data[57] 	8502
scalar dtelecom_network.node[57].content_store 	p_hit[57] 	0.2823499620157
scalar dtelecom_network.node[57].content_store 	hits[57] 	3345
scalar dtelecom_network.node[57].content_store 	misses[57] 	8502
scalar dtelecom_network.node[57].content_store 	decision_yes[57] 	12
scalar dtelecom_network.node[57].content_store 	decision_no[57] 	8490
scalar dtelecom_network.node[57].content_store 	decision_ratio[57] 	0.0014114326040932
scalar dtelecom_network.node[58].core_layer 	interests[58] 	11929
scalar dtelecom_network.node[58].core_layer 	data[58] 	8625
scalar dtelecom_network.node[58].content_store 	p_hit[58] 	0.27663676754129
scalar dtelecom_network.node[58].content_store 	hits[58] 	3300
scalar dtelecom_network.node[58].content_store 	misses[58] 	8629
scalar dtelecom_network.node[58].content_store 	decision_yes[58] 	7
scalar dtelecom_network.node[58].content_store 	decision_no[58] 	8618
scalar dtelecom_network.node[58].content_store 	decision_ratio[58] 	0.00081159420289855
scalar dtelecom_network.node[59].core_layer 	interests[59] 	12051
scalar dtelecom_network.node[59].core_layer 	data[59] 	8706
scalar dtelecom_network.node[59].content_store 	p_hit[59] 	0.27757032611402
scalar dtelecom_network.node[59].content_store 	hits[59] 	3345
scalar dtelecom_network.node[59].content_store 	misses[59] 	8706
scalar dtelecom_network.node[59].content_store 	decision_yes[59] 	9
scalar dtelecom_network.node[59].content_store 	decision_no[59] 	8697
scalar dtelecom_network.node[59].content_store 	decision_ratio[59] 	0.0010337698139214
scalar dtelecom_network.node[60].core_layer 	interests[60] 	0
scalar dtelecom_network.node[60].core_layer 	data[60] 	0
scalar dtelecom_network.node[60].content_store 	p_hit[60] 	-nan
scalar dtelecom_network.node[60].content_store 	hits[60] 	0
scalar dtelecom_network.node[60].content_store 	misses[60] 	0
scalar dtelecom_network.node[60].content_store 	decision_yes[60] 	0
scalar dtelecom_network.node[60].content_store 	decision_no[60] 	0
scalar dtelecom_network.node[60].content_store 	decision_ratio[60] 	0
scalar dtelecom_network.node[61].core_layer 	interests[61] 	0
scalar dtelecom_network.node[61].core_layer 	data[61] 	0
scalar dtelecom_network.node[61].content_store 	p_hit[61] 	-nan
scalar dtelecom_network.node[61].content_store 	hits[61] 	0
scalar dtelecom_network.node[61].content_store 	misses[61] 	0
scalar dtelecom_network.node[61].content_store 	decision_yes[61] 	0
scalar dtelecom_network.node[61].content_store 	decision_no[61] 	0
scalar dtelecom_network.node[61].content_store 	decision_ratio[61] 	0
scalar dtelecom_network.node[62].core_layer 	interests[62] 	24446
scalar dtelecom_network.node[62].core_layer 	repo_load[62] 	12035
scalar dtelecom_network.node[62].core_layer 	data[62] 	8562
scalar dtelecom_network.node[62].content_store 	p_hit[62] 	0.15724453898388
scalar dtelecom_network.node[62].content_store 	hits[62] 	3844
scalar dtelecom_network.node[62].content_store 	misses[62] 	20602
scalar dtelecom_network.node[62].content_store 	decision_yes[62] 	42
scalar dtelecom_network.node[62].content_store 	decision_no[62] 	20555
scalar dtelecom_network.node[62].content_store 	decision_ratio[62] 	0.0020391319124144
scalar dtelecom_network.node[63].core_layer 	interests[63] 	0
scalar dtelecom_network.node[63].core_layer 	data[63] 	0
scalar dtelecom_network.node[63].content_store 	p_hit[63] 	-nan
scalar dtelecom_network.node[63].content_store 	hits[63] 	0
scalar dtelecom_network.node[63].content_store 	misses[63] 	0
scalar dtelecom_network.node[63].content_store 	decision_yes[63] 	0
scalar dtelecom_network.node[63].content_store 	decision_no[63] 	0
scalar dtelecom_network.node[63].content_store 	decision_ratio[63] 	0
scalar dtelecom_network.node[64].core_layer 	interests[64] 	13303
scalar dtelecom_network.node[64].core_layer 	repo_load[64] 	11248
scalar dtelecom_network.node[64].core_layer 	data[64] 	0
scalar dtelecom_network.node[64].content_store 	p_hit[64] 	0.15447643388709
scalar dtelecom_network.node[64].content_store 	hits[64] 	2055
scalar dtelecom_network.node[64].content_store 	misses[64] 	11248
scalar dtelecom_network.node[64].content_store 	decision_yes[64] 	58
scalar dtelecom_network.node[64].content_store 	decision_no[64] 	11190
scalar dtelecom_network.node[64].content_store 	decision_ratio[64] 	0.0051564722617354
scalar dtelecom_network.node[65].core_layer 	interests[65] 	0
scalar dtelecom_network.node[65].core_layer 	data[65] 	0
scalar dtelecom_network.node[65].content_store 	p_hit[65] 	-nan
scalar dtelecom_network.node[65].content_store 	hits[65] 	0
scalar dtelecom_network.node[65].content_store 	misses[65] 	0
scalar dtelecom_network.node[65].content_store 	decision_yes[65] 	0
scalar dtelecom_network.node[65].content_store 	decision_no[65] 	0
scalar dtelecom_network.node[65].content_store 	decision_ratio[65] 	0
scalar dtelecom_network.node[66].core_layer 	interests[66] 	11854
scalar dtelecom_network.node[66].core_layer 	data[66] 	8587
scalar dtelecom_network.node[66].content_store 	p_hit[66] 	0.27543445250548
scalar dtelecom_network.node[66].content_store 	hits[66] 	3265
scalar dtelecom_network.node[66].content_store 	misses[66] 	8589
scalar dtelecom_network.node[66].content_store 	decision_yes[66] 	11
scalar dtelecom_network.node[66].content_store 	decision_no[66] 	8576
scalar dtelecom_network.node[66].content_store 	decision_ratio[66] 	0.0012810061721206
scalar dtelecom_network.node[67].core_layer 	interests[67] 	12099
scalar dtelecom_network.node[67].core_layer 	data[67] 	8599
scalar dtelecom_network.node[67].content_store 	p_hit[67] 	0.28903215141747
scalar dtelecom_network.node[67].content_store 	hits[67] 	3497
scalar dtelecom_network.node[67].content_store 	misses[67] 	8602
scalar dtelecom_network.node[67].content_store 	decision_yes[67] 	14
scalar dtelecom_network.node[67].content_store 	decision_no[67] 	8585
scalar dtelecom_network.node[67].content_store 	decision_ratio[67] 	0.0016280962902663
scalar dtelecom_network.client[3] 	hdistance[3] 	1.3419265078975
scalar dtelecom_network.client[3] 	downloads[3] 	12219
scalar dtelecom_network.client[3] 	avg_time[3] 	0.010061246825
scalar dtelecom_network.client[4] 	hdistance[4] 	1.3405869601467
scalar dtelecom_network.client[4] 	downloads[4] 	11994
scalar dtelecom_network.client[4] 	avg_time[4] 	0.052116812868
scalar dtelecom_network.client[8] 	hdistance[8] 	1.8857447506562
scalar dtelecom_network.client[8] 	downloads[8] 	12192
scalar dtelecom_network.client[8] 	avg_time[8] 	0.01320512656
scalar dtelecom_network.client[9] 	hdistance[9] 	1.7834527578737
scalar dtelecom_network.client[9] 	downloads[9] 	12002
scalar dtelecom_network.client[9] 	avg_time[9] 	0.012873660125
scalar dtelecom_network.client[17] 	hdistance[17] 	1.8919939577039
scalar dtelecom_network.client[17] 	downloads[17] 	11916
scalar dtelecom_network.client[17] 	avg_time[17] 	0.010749657678
scalar dtelecom_network.client[22] 	hdistance[22] 	1.8938570831592
scalar dtelecom_network.client[22] 	downloads[22] 	11965
scalar dtelecom_network.client[22] 	avg_time[22] 	0.012415159906
scalar dtelecom_network.client[23] 	hdistance[23] 	1.6088154269972
scalar dtelecom_network.client[23] 	downloads[23] 	11979
scalar dtelecom_network.client[23] 	avg_time[23] 	0.010778901357
scalar dtelecom_network.client[28] 	hdistance[28] 	1.8707865168539
scalar dtelecom_network.client[28] 	downloads[28] 	11926
scalar dtelecom_network.client[28] 	avg_time[28] 	0.014886080786
scalar dtelecom_network.client[30] 	hdistance[30] 	1.9282788598178
scalar dtelecom_network.client[30] 	downloads[30] 	11963
scalar dtelecom_network.client[30] 	avg_time[30] 	0.012742853088
scalar dtelecom_network.client[31] 	hdistance[31] 	1.8721423227201
scalar dtelecom_network.client[31] 	downloads[31] 	12029
scalar dtelecom_network.client[31] 	avg_time[31] 	0.013027574453
scalar dtelecom_network.client[32] 	hdistance[32] 	1.916881818939
scalar dtelecom_network.client[32] 	downloads[32] 	12007
scalar dtelecom_network.client[32] 	avg_time[32] 	0.010751579696
scalar dtelecom_network.client[33] 	hdistance[33] 	1.8125469885557
scalar dtelecom_network.client[33] 	downloads[33] 	11971
scalar dtelecom_network.client[33] 	avg_time[33] 	0.012654464033
scalar dtelecom_network.client[36] 	hdistance[36] 	1.9115957712478
scalar dtelecom_network.client[36] 	downloads[36] 	12013
scalar dtelecom_network.client[36] 	avg_time[36] 	0.013044456859
scalar dtelecom_network.client[37] 	hdistance[37] 	1.8779658204745
scalar dtelecom_network.client[37] 	downloads[37] 	12054
scalar dtelecom_network.client[37] 	avg_time[37] 	0.011521975755
scalar dtelecom_network.client[40] 	hdistance[40] 	1.8420965608466
scalar dtelecom_network.client[40] 	downloads[40] 	12096
scalar dtelecom_network.client[40] 	avg_time[40] 	0.013974016263
scalar dtelecom_network.client[42] 	hdistance[42] 	1.9074416260709
scalar dtelecom_network.client[42] 	downloads[42] 	11906
scalar dtelecom_network.client[42] 	avg_time[42] 	0.012504589036
scalar dtelecom_network.client[45] 	hdistance[45] 	1.9009282700422
scalar dtelecom_network.client[45] 	downloads[45] 	11850
scalar dtelecom_network.client[45] 	avg_time[45] 	0.01215137005
scalar dtelecom_network.client[46] 	hdistance[46] 	1.838331268071
scalar dtelecom_network.client[46] 	downloads[46] 	12105
scalar dtelecom_network.client[46] 	avg_time[46] 	0.013395102884
scalar dtelecom_network.client[48] 	hdistance[48] 	1.8866727107888
scalar dtelecom_network.client[48] 	downloads[48] 	12133
scalar dtelecom_network.client[48] 	avg_time[48] 	0.012899601499
scalar dtelecom_network.client[49] 	hdistance[49] 	1.9216597650638
scalar dtelecom_network.client[49] 	downloads[49] 	11833
scalar dtelecom_network.client[49] 	avg_time[49] 	0.012390971566
scalar dtelecom_network.client[50] 	hdistance[50] 	1.9185215605749
scalar dtelecom_network.client[50] 	downloads[50] 	12175
scalar dtelecom_network.client[50] 	avg_time[50] 	0.011175969855
scalar dtelecom_network.client[51] 	hdistance[51] 	1.861790668348
scalar dtelecom_network.client[51] 	downloads[51] 	11895
scalar dtelecom_network.client[51] 	avg_time[51] 	0.013129218796
scalar dtelecom_network.client[53] 	hdistance[53] 	1.8988533988534
scalar dtelecom_network.client[53] 	downloads[53] 	12210
scalar dtelecom_network.client[53] 	avg_time[53] 	0.011302735112
scalar dtelecom_network.client[54] 	hdistance[54] 	1.8862300587741
scalar dtelecom_network.client[54] 	downloads[54] 	11910
scalar dtelecom_network.client[54] 	avg_time[54] 	0.013098916137
scalar dtelecom_network.client[55] 	hdistance[55] 	1.8405482199565
scalar dtelecom_network.client[55] 	downloads[55] 	11966
scalar dtelecom_network.client[55] 	avg_time[55] 	0.015357703615
scalar dtelecom_network.client[56] 	hdistance[56] 	1.8749066777271
scalar dtelecom_network.client[56] 	downloads[56] 	12055
scalar dtelecom_network.client[56] 	avg_time[56] 	0.011293068562
scalar dtelecom_network.client[57] 	hdistance[57] 	1.9226808474719
scalar dtelecom_network.client[57] 	downloads[57] 	11847
scalar dtelecom_network.client[57] 	avg_time[57] 	0.010900743947
scalar dtelecom_network.client[58] 	hdistance[58] 	1.9513626834382
scalar dtelecom_network.client[58] 	downloads[58] 	11925
scalar dtelecom_network.client[58] 	avg_time[58] 	0.01374512783
scalar dtelecom_network.client[59] 	hdistance[59] 	1.8269023317567
scalar dtelecom_network.client[59] 	downloads[59] 	12051
scalar dtelecom_network.client[59] 	avg_time[59] 	0.055290977596
scalar dtelecom_network.client[62] 	hdistance[62] 	2.1931185697419
scalar dtelecom_network.client[62] 	downloads[62] 	11858
scalar dtelecom_network.client[62] 	avg_time[62] 	0.05530018185
scalar dtelecom_network.client[66] 	hdistance[66] 	1.9830408369895
scalar dtelecom_network.client[66] 	downloads[66] 	11852
scalar dtelecom_network.client[66] 	avg_time[66] 	0.091131937984
scalar dtelecom_network.client[67] 	hdistance[67] 	1.9499007936508
scalar dtelecom_network.client[67] 	downloads[67] 	12096
scalar dtelecom_network.client[67] 	avg_time[67] 	0.075243019227
