version 2
run General-8-20160826-16:48:00-21255
attr D ffc0.1
attr F nrr
attr R lru
attr a 0.9
attr configname General
attr datetime 20160826-16:48:00
attr experiment General
attr inifile hw5115/scenario_C/omnetp.ini
attr iterationvars "$net=abilene, $rep=1, $a=0.9, $F=nrr, $D=ffc0.1, $R=lru, $window=60, $variance=0.05, $mytime=600"
attr iterationvars2 "$net=abilene, $rep=1, $a=0.9, $F=nrr, $D=ffc0.1, $R=lru, $window=60, $variance=0.05, $mytime=600, $repetition=0"
attr measurement "$net=abilene, $rep=1, $a=0.9, $F=nrr, $D=ffc0.1, $R=lru, $window=60, $variance=0.05, $mytime=600"
attr mytime 600
attr net abilene
attr network networks.${net=abilene}_network
attr processid 21255
attr rep 1
attr repetition 0
attr replication #0
attr resultdir results
attr runnumber 8
attr seedset 1
attr variance 0.05
attr window 60

scalar . 	a 	0.9
scalar . 	mytime 	600
scalar . 	rep 	1
scalar . 	variance 	0.05
scalar . 	window 	60
scalar abilene_network.content_distribution 	repo-0 	10
scalar abilene_network.content_distribution 	repo-1 	7
scalar abilene_network.content_distribution 	repo-2 	5
scalar abilene_network.content_distribution 	repo-3 	1
scalar abilene_network.content_distribution 	repo-4 	8
scalar abilene_network.content_distribution 	repo-5 	2
scalar abilene_network.content_distribution 	repo-6 	9
scalar abilene_network.content_distribution 	repo-7 	4
scalar abilene_network.content_distribution 	repo-8 	6
scalar abilene_network.content_distribution 	repo-9 	3
scalar abilene_network.content_distribution 	repo-10 	0
scalar abilene_network.content_distribution 	client-0 	7
scalar abilene_network.content_distribution 	client-1 	5
scalar abilene_network.content_distribution 	client-2 	9
scalar abilene_network.content_distribution 	client-3 	6
scalar abilene_network.content_distribution 	client-4 	8
scalar abilene_network.content_distribution 	client-5 	2
scalar abilene_network.content_distribution 	client-6 	1
scalar abilene_network.content_distribution 	client-7 	10
scalar abilene_network.content_distribution 	client-8 	0
scalar abilene_network.content_distribution 	client-9 	3
scalar abilene_network.content_distribution 	client-10 	4
scalar abilene_network.content_distribution 	repo-0_card 	8956
scalar abilene_network.content_distribution 	repo-0_price 	0
scalar abilene_network.content_distribution 	repo-1_card 	9061
scalar abilene_network.content_distribution 	repo-1_price 	0
scalar abilene_network.content_distribution 	repo-2_card 	9017
scalar abilene_network.content_distribution 	repo-2_price 	0
scalar abilene_network.content_distribution 	repo-3_card 	9157
scalar abilene_network.content_distribution 	repo-3_price 	0
scalar abilene_network.content_distribution 	repo-4_card 	9262
scalar abilene_network.content_distribution 	repo-4_price 	0
scalar abilene_network.content_distribution 	repo-5_card 	9009
scalar abilene_network.content_distribution 	repo-5_price 	0
scalar abilene_network.content_distribution 	repo-6_card 	9067
scalar abilene_network.content_distribution 	repo-6_price 	0
scalar abilene_network.content_distribution 	repo-7_card 	9189
scalar abilene_network.content_distribution 	repo-7_price 	0
scalar abilene_network.content_distribution 	repo-8_card 	9068
scalar abilene_network.content_distribution 	repo-8_price 	0
scalar abilene_network.content_distribution 	repo-9_card 	9019
scalar abilene_network.content_distribution 	repo-9_price 	0
scalar abilene_network.content_distribution 	repo-10_card 	9195
scalar abilene_network.content_distribution 	repo-10_price 	0
scalar abilene_network.statistics 	stabilization_time 	1612.2
scalar abilene_network.statistics 	p_hit 	0.16112947009846
scalar abilene_network.statistics 	interests 	30786.636363636
scalar abilene_network.statistics 	data 	18795.454545455
scalar abilene_network.statistics 	hdistance 	2.1793155190716
scalar abilene_network.statistics 	avg_time 	0.010043548995
scalar abilene_network.statistics 	downloads 	131899
scalar abilene_network.statistics 	total_cost 	0
scalar abilene_network.statistics 	total_replicas 	100000
scalar abilene_network.statistics 	inner_hit 	0.38822129053291
scalar abilene_network.node[0].core_layer 	interests[0] 	19143
scalar abilene_network.node[0].core_layer 	repo_load[0] 	6850
scalar abilene_network.node[0].core_layer 	data[0] 	8287
scalar abilene_network.node[0].core_layer 	repo_int[0] 	80693
scalar abilene_network.node[0].content_store 	p_hit[0] 	0.20926709502168
scalar abilene_network.node[0].content_store 	hits[0] 	4006
scalar abilene_network.node[0].content_store 	misses[0] 	15137
scalar abilene_network.node[0].content_store 	decision_yes[0] 	27
scalar abilene_network.node[0].content_store 	decision_no[0] 	15110
scalar abilene_network.node[0].content_store 	decision_ratio[0] 	0.0017837087930237
scalar abilene_network.node[1].core_layer 	interests[1] 	36817
scalar abilene_network.node[1].core_layer 	repo_load[1] 	7655
scalar abilene_network.node[1].core_layer 	data[1] 	24235
scalar abilene_network.node[1].content_store 	p_hit[1] 	0.13385121003884
scalar abilene_network.node[1].content_store 	hits[1] 	4928
scalar abilene_network.node[1].content_store 	misses[1] 	31889
scalar abilene_network.node[1].content_store 	decision_yes[1] 	35
scalar abilene_network.node[1].content_store 	decision_no[1] 	31855
scalar abilene_network.node[1].content_store 	decision_ratio[1] 	0.0010975227343995
scalar abilene_network.node[2].core_layer 	interests[2] 	49491
scalar abilene_network.node[2].core_layer 	repo_load[2] 	7765
scalar abilene_network.node[2].core_layer 	data[2] 	36348
scalar abilene_network.node[2].content_store 	p_hit[2] 	0.1086662221414
scalar abilene_network.node[2].content_store 	hits[2] 	5378
scalar abilene_network.node[2].content_store 	misses[2] 	44113
scalar abilene_network.node[2].content_store 	decision_yes[2] 	60
scalar abilene_network.node[2].content_store 	decision_no[2] 	44053
scalar abilene_network.node[2].content_store 	decision_ratio[2] 	0.0013601432684243
scalar abilene_network.node[3].core_layer 	interests[3] 	46434
scalar abilene_network.node[3].core_layer 	repo_load[3] 	7768
scalar abilene_network.node[3].core_layer 	data[3] 	33545
scalar abilene_network.node[3].content_store 	p_hit[3] 	0.11024249472369
scalar abilene_network.node[3].content_store 	hits[3] 	5119
scalar abilene_network.node[3].content_store 	misses[3] 	41315
scalar abilene_network.node[3].content_store 	decision_yes[3] 	54
scalar abilene_network.node[3].content_store 	decision_no[3] 	41259
scalar abilene_network.node[3].content_store 	decision_ratio[3] 	0.0013070946191272
scalar abilene_network.node[4].core_layer 	interests[4] 	27892
scalar abilene_network.node[4].core_layer 	repo_load[4] 	7721
scalar abilene_network.node[4].core_layer 	data[4] 	15432
scalar abilene_network.node[4].content_store 	p_hit[4] 	0.16990534920407
scalar abilene_network.node[4].content_store 	hits[4] 	4739
scalar abilene_network.node[4].content_store 	misses[4] 	23153
scalar abilene_network.node[4].content_store 	decision_yes[4] 	39
scalar abilene_network.node[4].content_store 	decision_no[4] 	23114
scalar abilene_network.node[4].content_store 	decision_ratio[4] 	0.0016844469399214
scalar abilene_network.node[5].core_layer 	interests[5] 	21007
scalar abilene_network.node[5].core_layer 	repo_load[5] 	6872
scalar abilene_network.node[5].core_layer 	data[5] 	10127
scalar abilene_network.node[5].content_store 	p_hit[5] 	0.19074594182891
scalar abilene_network.node[5].content_store 	hits[5] 	4007
scalar abilene_network.node[5].content_store 	misses[5] 	17000
scalar abilene_network.node[5].content_store 	decision_yes[5] 	30
scalar abilene_network.node[5].content_store 	decision_no[5] 	16969
scalar abilene_network.node[5].content_store 	decision_ratio[5] 	0.0017648096946879
scalar abilene_network.node[6].core_layer 	interests[6] 	24154
scalar abilene_network.node[6].core_layer 	repo_load[6] 	7004
scalar abilene_network.node[6].core_layer 	data[6] 	12781
scalar abilene_network.node[6].content_store 	p_hit[6] 	0.18088101349673
scalar abilene_network.node[6].content_store 	hits[6] 	4369
scalar abilene_network.node[6].content_store 	misses[6] 	19785
scalar abilene_network.node[6].content_store 	decision_yes[6] 	24
scalar abilene_network.node[6].content_store 	decision_no[6] 	19761
scalar abilene_network.node[6].content_store 	decision_ratio[6] 	0.001213040181956
scalar abilene_network.node[7].core_layer 	interests[7] 	34071
scalar abilene_network.node[7].core_layer 	repo_load[7] 	7526
scalar abilene_network.node[7].core_layer 	data[7] 	21617
scalar abilene_network.node[7].content_store 	p_hit[7] 	0.14460978544803
scalar abilene_network.node[7].content_store 	hits[7] 	4927
scalar abilene_network.node[7].content_store 	misses[7] 	29144
scalar abilene_network.node[7].content_store 	decision_yes[7] 	34
scalar abilene_network.node[7].content_store 	decision_no[7] 	29109
scalar abilene_network.node[7].content_store 	decision_ratio[7] 	0.0011666609477405
scalar abilene_network.node[8].core_layer 	interests[8] 	32772
scalar abilene_network.node[8].core_layer 	repo_load[8] 	7399
scalar abilene_network.node[8].core_layer 	data[8] 	20283
scalar abilene_network.node[8].content_store 	p_hit[8] 	0.15528499938972
scalar abilene_network.node[8].content_store 	hits[8] 	5089
scalar abilene_network.node[8].content_store 	misses[8] 	27683
scalar abilene_network.node[8].content_store 	decision_yes[8] 	37
scalar abilene_network.node[8].content_store 	decision_no[8] 	27645
scalar abilene_network.node[8].content_store 	decision_ratio[8] 	0.0013366086265443
scalar abilene_network.node[9].core_layer 	interests[9] 	23742
scalar abilene_network.node[9].core_layer 	repo_load[9] 	6873
scalar abilene_network.node[9].core_layer 	data[9] 	12688
scalar abilene_network.node[9].content_store 	p_hit[9] 	0.17601718473591
scalar abilene_network.node[9].content_store 	hits[9] 	4179
scalar abilene_network.node[9].content_store 	misses[9] 	19563
scalar abilene_network.node[9].content_store 	decision_yes[9] 	37
scalar abilene_network.node[9].content_store 	decision_no[9] 	19524
scalar abilene_network.node[9].content_store 	decision_ratio[9] 	0.0018915188385052
scalar abilene_network.node[10].core_layer 	interests[10] 	23130
scalar abilene_network.node[10].core_layer 	repo_load[10] 	7260
scalar abilene_network.node[10].core_layer 	data[10] 	11407
scalar abilene_network.node[10].content_store 	p_hit[10] 	0.19295287505404
scalar abilene_network.node[10].content_store 	hits[10] 	4463
scalar abilene_network.node[10].content_store 	misses[10] 	18667
scalar abilene_network.node[10].content_store 	decision_yes[10] 	38
scalar abilene_network.node[10].content_store 	decision_no[10] 	18629
scalar abilene_network.node[10].content_store 	decision_ratio[10] 	0.0020356779343226
scalar abilene_network.client[0] 	hdistance[0] 	2.5439764111205
scalar abilene_network.client[0] 	downloads[0] 	11870
scalar abilene_network.client[0] 	avg_time[0] 	0.013455410691
scalar abilene_network.client[1] 	hdistance[1] 	2.0589705147426
scalar abilene_network.client[1] 	downloads[1] 	12006
scalar abilene_network.client[1] 	avg_time[1] 	0.00860488291
scalar abilene_network.client[2] 	hdistance[2] 	1.8378086291462
scalar abilene_network.client[2] 	downloads[2] 	12029
scalar abilene_network.client[2] 	avg_time[2] 	0.00757189823
scalar abilene_network.client[3] 	hdistance[3] 	1.9161898350724
scalar abilene_network.client[3] 	downloads[3] 	11884
scalar abilene_network.client[3] 	avg_time[3] 	0.007711487224
scalar abilene_network.client[4] 	hdistance[4] 	2.2436164018964
scalar abilene_network.client[4] 	downloads[4] 	12023
scalar abilene_network.client[4] 	avg_time[4] 	0.008168865049
scalar abilene_network.client[5] 	hdistance[5] 	2.5710389288371
scalar abilene_network.client[5] 	downloads[5] 	12099
scalar abilene_network.client[5] 	avg_time[5] 	0.010847534253
scalar abilene_network.client[6] 	hdistance[6] 	2.3550658603264
scalar abilene_network.client[6] 	downloads[6] 	12071
scalar abilene_network.client[6] 	avg_time[6] 	0.010747638415
scalar abilene_network.client[7] 	hdistance[7] 	1.9775844764135
scalar abilene_network.client[7] 	downloads[7] 	11956
scalar abilene_network.client[7] 	avg_time[7] 	0.008457778884
scalar abilene_network.client[8] 	hdistance[8] 	1.9212591919359
scalar abilene_network.client[8] 	downloads[8] 	12103
scalar abilene_network.client[8] 	avg_time[8] 	0.00921096616
scalar abilene_network.client[9] 	hdistance[9] 	2.2234114276083
scalar abilene_network.client[9] 	downloads[9] 	11866
scalar abilene_network.client[9] 	avg_time[9] 	0.013447755224
scalar abilene_network.client[10] 	hdistance[10] 	2.3235490326885
scalar abilene_network.client[10] 	downloads[10] 	11992
scalar abilene_network.client[10] 	avg_time[10] 	0.012254821906
