version 2
run General-18-20160826-16:55:46-21255
attr D ffc0.1
attr F nrr
attr R lru
attr a 0.9
attr configname General
attr datetime 20160826-16:55:46
attr experiment General
attr inifile hw5115/scenario_C/omnetp.ini
attr iterationvars "$net=abilene, $rep=2, $a=0.9, $F=nrr, $D=ffc0.1, $R=lru, $window=60, $variance=0.05, $mytime=600"
attr iterationvars2 "$net=abilene, $rep=2, $a=0.9, $F=nrr, $D=ffc0.1, $R=lru, $window=60, $variance=0.05, $mytime=600, $repetition=0"
attr measurement "$net=abilene, $rep=2, $a=0.9, $F=nrr, $D=ffc0.1, $R=lru, $window=60, $variance=0.05, $mytime=600"
attr mytime 600
attr net abilene
attr network networks.${net=abilene}_network
attr processid 21255
attr rep 2
attr repetition 0
attr replication #0
attr resultdir results
attr runnumber 18
attr seedset 2
attr variance 0.05
attr window 60

scalar . 	a 	0.9
scalar . 	mytime 	600
scalar . 	rep 	2
scalar . 	variance 	0.05
scalar . 	window 	60
scalar abilene_network.content_distribution 	repo-0 	4
scalar abilene_network.content_distribution 	repo-1 	9
scalar abilene_network.content_distribution 	repo-2 	6
scalar abilene_network.content_distribution 	repo-3 	3
scalar abilene_network.content_distribution 	repo-4 	7
scalar abilene_network.content_distribution 	repo-5 	8
scalar abilene_network.content_distribution 	repo-6 	10
scalar abilene_network.content_distribution 	repo-7 	0
scalar abilene_network.content_distribution 	repo-8 	5
scalar abilene_network.content_distribution 	repo-9 	2
scalar abilene_network.content_distribution 	repo-10 	1
scalar abilene_network.content_distribution 	client-0 	7
scalar abilene_network.content_distribution 	client-1 	5
scalar abilene_network.content_distribution 	client-2 	9
scalar abilene_network.content_distribution 	client-3 	6
scalar abilene_network.content_distribution 	client-4 	8
scalar abilene_network.content_distribution 	client-5 	2
scalar abilene_network.content_distribution 	client-6 	1
scalar abilene_network.content_distribution 	client-7 	10
scalar abilene_network.content_distribution 	client-8 	0
scalar abilene_network.content_distribution 	client-9 	3
scalar abilene_network.content_distribution 	client-10 	4
scalar abilene_network.content_distribution 	repo-0_card 	9130
scalar abilene_network.content_distribution 	repo-0_price 	0
scalar abilene_network.content_distribution 	repo-1_card 	8938
scalar abilene_network.content_distribution 	repo-1_price 	0
scalar abilene_network.content_distribution 	repo-2_card 	9073
scalar abilene_network.content_distribution 	repo-2_price 	0
scalar abilene_network.content_distribution 	repo-3_card 	9064
scalar abilene_network.content_distribution 	repo-3_price 	0
scalar abilene_network.content_distribution 	repo-4_card 	9026
scalar abilene_network.content_distribution 	repo-4_price 	0
scalar abilene_network.content_distribution 	repo-5_card 	9161
scalar abilene_network.content_distribution 	repo-5_price 	0
scalar abilene_network.content_distribution 	repo-6_card 	9115
scalar abilene_network.content_distribution 	repo-6_price 	0
scalar abilene_network.content_distribution 	repo-7_card 	9125
scalar abilene_network.content_distribution 	repo-7_price 	0
scalar abilene_network.content_distribution 	repo-8_card 	9237
scalar abilene_network.content_distribution 	repo-8_price 	0
scalar abilene_network.content_distribution 	repo-9_card 	8999
scalar abilene_network.content_distribution 	repo-9_price 	0
scalar abilene_network.content_distribution 	repo-10_card 	9132
scalar abilene_network.content_distribution 	repo-10_price 	0
scalar abilene_network.statistics 	stabilization_time 	1554.3
scalar abilene_network.statistics 	p_hit 	0.1615217633829
scalar abilene_network.statistics 	interests 	30873.090909091
scalar abilene_network.statistics 	data 	18858.454545455
scalar abilene_network.statistics 	hdistance 	2.1818663707234
scalar abilene_network.statistics 	avg_time 	0.01004742683
scalar abilene_network.statistics 	downloads 	132157
scalar abilene_network.statistics 	total_cost 	0
scalar abilene_network.statistics 	total_replicas 	100000
scalar abilene_network.statistics 	inner_hit 	0.38843950755541
scalar abilene_network.node[0].core_layer 	interests[0] 	19358
scalar abilene_network.node[0].core_layer 	repo_load[0] 	7138
scalar abilene_network.node[0].core_layer 	data[0] 	8183
scalar abilene_network.node[0].core_layer 	repo_int[0] 	80822
scalar abilene_network.node[0].content_store 	p_hit[0] 	0.20854427110239
scalar abilene_network.node[0].content_store 	hits[0] 	4037
scalar abilene_network.node[0].content_store 	misses[0] 	15321
scalar abilene_network.node[0].content_store 	decision_yes[0] 	35
scalar abilene_network.node[0].content_store 	decision_no[0] 	15286
scalar abilene_network.node[0].content_store 	decision_ratio[0] 	0.0022844461849749
scalar abilene_network.node[1].core_layer 	interests[1] 	36943
scalar abilene_network.node[1].core_layer 	repo_load[1] 	7462
scalar abilene_network.node[1].core_layer 	data[1] 	24469
scalar abilene_network.node[1].content_store 	p_hit[1] 	0.13566846222559
scalar abilene_network.node[1].content_store 	hits[1] 	5012
scalar abilene_network.node[1].content_store 	misses[1] 	31931
scalar abilene_network.node[1].content_store 	decision_yes[1] 	40
scalar abilene_network.node[1].content_store 	decision_no[1] 	31891
scalar abilene_network.node[1].content_store 	decision_ratio[1] 	0.0012527011368263
scalar abilene_network.node[2].core_layer 	interests[2] 	49631
scalar abilene_network.node[2].core_layer 	repo_load[2] 	7818
scalar abilene_network.node[2].core_layer 	data[2] 	36748
scalar abilene_network.node[2].content_store 	p_hit[2] 	0.10201285486893
scalar abilene_network.node[2].content_store 	hits[2] 	5063
scalar abilene_network.node[2].content_store 	misses[2] 	44568
scalar abilene_network.node[2].content_store 	decision_yes[2] 	48
scalar abilene_network.node[2].content_store 	decision_no[2] 	44518
scalar abilene_network.node[2].content_store 	decision_ratio[2] 	0.0010770542566082
scalar abilene_network.node[3].core_layer 	interests[3] 	45995
scalar abilene_network.node[3].core_layer 	repo_load[3] 	7320
scalar abilene_network.node[3].core_layer 	data[3] 	33692
scalar abilene_network.node[3].content_store 	p_hit[3] 	0.10831612131753
scalar abilene_network.node[3].content_store 	hits[3] 	4982
scalar abilene_network.node[3].content_store 	misses[3] 	41013
scalar abilene_network.node[3].content_store 	decision_yes[3] 	39
scalar abilene_network.node[3].content_store 	decision_no[3] 	40973
scalar abilene_network.node[3].content_store 	decision_ratio[3] 	0.00095094118794499
scalar abilene_network.node[4].core_layer 	interests[4] 	27509
scalar abilene_network.node[4].core_layer 	repo_load[4] 	7547
scalar abilene_network.node[4].core_layer 	data[4] 	15794
scalar abilene_network.node[4].content_store 	p_hit[4] 	0.15151404994729
scalar abilene_network.node[4].content_store 	hits[4] 	4168
scalar abilene_network.node[4].content_store 	misses[4] 	23341
scalar abilene_network.node[4].content_store 	decision_yes[4] 	32
scalar abilene_network.node[4].content_store 	decision_no[4] 	23309
scalar abilene_network.node[4].content_store 	decision_ratio[4] 	0.0013709781071934
scalar abilene_network.node[5].core_layer 	interests[5] 	21364
scalar abilene_network.node[5].core_layer 	repo_load[5] 	7078
scalar abilene_network.node[5].core_layer 	data[5] 	10028
scalar abilene_network.node[5].content_store 	p_hit[5] 	0.19930724583411
scalar abilene_network.node[5].content_store 	hits[5] 	4258
scalar abilene_network.node[5].content_store 	misses[5] 	17106
scalar abilene_network.node[5].content_store 	decision_yes[5] 	29
scalar abilene_network.node[5].content_store 	decision_no[5] 	17077
scalar abilene_network.node[5].content_store 	decision_ratio[5] 	0.0016953115865778
scalar abilene_network.node[6].core_layer 	interests[6] 	24287
scalar abilene_network.node[6].core_layer 	repo_load[6] 	6902
scalar abilene_network.node[6].core_layer 	data[6] 	12978
scalar abilene_network.node[6].content_store 	p_hit[6] 	0.18145509943591
scalar abilene_network.node[6].content_store 	hits[6] 	4407
scalar abilene_network.node[6].content_store 	misses[6] 	19880
scalar abilene_network.node[6].content_store 	decision_yes[6] 	34
scalar abilene_network.node[6].content_store 	decision_no[6] 	19846
scalar abilene_network.node[6].content_store 	decision_ratio[6] 	0.0017102615694165
scalar abilene_network.node[7].core_layer 	interests[7] 	34060
scalar abilene_network.node[7].core_layer 	repo_load[7] 	7540
scalar abilene_network.node[7].core_layer 	data[7] 	21400
scalar abilene_network.node[7].content_store 	p_hit[7] 	0.15032295948326
scalar abilene_network.node[7].content_store 	hits[7] 	5120
scalar abilene_network.node[7].content_store 	misses[7] 	28940
scalar abilene_network.node[7].content_store 	decision_yes[7] 	40
scalar abilene_network.node[7].content_store 	decision_no[7] 	28900
scalar abilene_network.node[7].content_store 	decision_ratio[7] 	0.0013821700069108
scalar abilene_network.node[8].core_layer 	interests[8] 	32971
scalar abilene_network.node[8].core_layer 	repo_load[8] 	7657
scalar abilene_network.node[8].core_layer 	data[8] 	20018
scalar abilene_network.node[8].content_store 	p_hit[8] 	0.16056534530345
scalar abilene_network.node[8].content_store 	hits[8] 	5294
scalar abilene_network.node[8].content_store 	misses[8] 	27677
scalar abilene_network.node[8].content_store 	decision_yes[8] 	44
scalar abilene_network.node[8].content_store 	decision_no[8] 	27631
scalar abilene_network.node[8].content_store 	decision_ratio[8] 	0.0015898825654923
scalar abilene_network.node[9].core_layer 	interests[9] 	24135
scalar abilene_network.node[9].core_layer 	repo_load[9] 	7077
scalar abilene_network.node[9].core_layer 	data[9] 	12740
scalar abilene_network.node[9].content_store 	p_hit[9] 	0.17882742904496
scalar abilene_network.node[9].content_store 	hits[9] 	4316
scalar abilene_network.node[9].content_store 	misses[9] 	19819
scalar abilene_network.node[9].content_store 	decision_yes[9] 	37
scalar abilene_network.node[9].content_store 	decision_no[9] 	19780
scalar abilene_network.node[9].content_store 	decision_ratio[9] 	0.0018670838169249
scalar abilene_network.node[10].core_layer 	interests[10] 	23351
scalar abilene_network.node[10].core_layer 	repo_load[10] 	7283
scalar abilene_network.node[10].core_layer 	data[10] 	11393
scalar abilene_network.node[10].content_store 	p_hit[10] 	0.20020555864845
scalar abilene_network.node[10].content_store 	hits[10] 	4675
scalar abilene_network.node[10].content_store 	misses[10] 	18676
scalar abilene_network.node[10].content_store 	decision_yes[10] 	44
scalar abilene_network.node[10].content_store 	decision_no[10] 	18632
scalar abilene_network.node[10].content_store 	decision_ratio[10] 	0.0023559648747055
scalar abilene_network.client[0] 	hdistance[0] 	2.5329808660624
scalar abilene_network.client[0] 	downloads[0] 	11916
scalar abilene_network.client[0] 	avg_time[0] 	0.013310644909
scalar abilene_network.client[1] 	hdistance[1] 	2.0789646133683
scalar abilene_network.client[1] 	downloads[1] 	12208
scalar abilene_network.client[1] 	avg_time[1] 	0.008740232875
scalar abilene_network.client[2] 	hdistance[2] 	1.86003789439
scalar abilene_network.client[2] 	downloads[2] 	12139
scalar abilene_network.client[2] 	avg_time[2] 	0.007760509723
scalar abilene_network.client[3] 	hdistance[3] 	1.9161279346717
scalar abilene_network.client[3] 	downloads[3] 	11756
scalar abilene_network.client[3] 	avg_time[3] 	0.007786856529
scalar abilene_network.client[4] 	hdistance[4] 	2.3436306261418
scalar abilene_network.client[4] 	downloads[4] 	12042
scalar abilene_network.client[4] 	avg_time[4] 	0.008610834051
scalar abilene_network.client[5] 	hdistance[5] 	2.5788554317085
scalar abilene_network.client[5] 	downloads[5] 	12022
scalar abilene_network.client[5] 	avg_time[5] 	0.010884839779
scalar abilene_network.client[6] 	hdistance[6] 	2.3625385191971
scalar abilene_network.client[6] 	downloads[6] 	12007
scalar abilene_network.client[6] 	avg_time[6] 	0.010787078817
scalar abilene_network.client[7] 	hdistance[7] 	1.9643392767872
scalar abilene_network.client[7] 	downloads[7] 	12002
scalar abilene_network.client[7] 	avg_time[7] 	0.008379773755
scalar abilene_network.client[8] 	hdistance[8] 	1.9061063690085
scalar abilene_network.client[8] 	downloads[8] 	12184
scalar abilene_network.client[8] 	avg_time[8] 	0.009137682414
scalar abilene_network.client[9] 	hdistance[9] 	2.1705852926463
scalar abilene_network.client[9] 	downloads[9] 	11994
scalar abilene_network.client[9] 	avg_time[9] 	0.013088008465
scalar abilene_network.client[10] 	hdistance[10] 	2.2863632539749
scalar abilene_network.client[10] 	downloads[10] 	11887
scalar abilene_network.client[10] 	avg_time[10] 	0.012035233822
