version 2
run General-0-20160830-15:00:34-8983
attr a 0.9
attr branch 3
attr cd lce
attr configname General
attr cr lru
attr datetime 20160830-15:00:34
attr experiment General
attr fsize 1
attr inifile hw5115/scenario_E/omnetp.ini
attr iterationvars "$name=tree, $levels=5, $branch=3, $un=00, $rep=1, $cd=lce, $cr=lru, $fsize=1, $a=0.9, $sl=nrr, $ttl=1000, $variance=0.05"
attr iterationvars2 "$name=tree, $levels=5, $branch=3, $un=00, $rep=1, $cd=lce, $cr=lru, $fsize=1, $a=0.9, $sl=nrr, $ttl=1000, $variance=0.05, $repetition=0"
attr levels 5
attr measurement "$name=tree, $levels=5, $branch=3, $un=00, $rep=1, $cd=lce, $cr=lru, $fsize=1, $a=0.9, $sl=nrr, $ttl=1000, $variance=0.05"
attr name tree
attr network networks.${name}_${levels}_${branch}_u${un}_r${rep}_network
attr processid 8983
attr rep 1
attr repetition 0
attr replication #0
attr resultdir results
attr runnumber 0
attr seedset 1
attr sl nrr
attr ttl 1000
attr un 00
attr variance 0.05

scalar . 	a 	0.9
scalar . 	branch 	3
scalar . 	fsize 	1
scalar . 	levels 	5
scalar . 	rep 	1
scalar . 	ttl 	1000
scalar . 	un 	00
scalar . 	variance 	0.05
scalar tree_5_3_u00_r1_network.content_distribution 	repo-0 	0
scalar tree_5_3_u00_r1_network.content_distribution 	client-0 	120
scalar tree_5_3_u00_r1_network.content_distribution 	client-1 	119
scalar tree_5_3_u00_r1_network.content_distribution 	client-2 	118
scalar tree_5_3_u00_r1_network.content_distribution 	client-3 	117
scalar tree_5_3_u00_r1_network.content_distribution 	client-4 	116
scalar tree_5_3_u00_r1_network.content_distribution 	client-5 	115
scalar tree_5_3_u00_r1_network.content_distribution 	client-6 	114
scalar tree_5_3_u00_r1_network.content_distribution 	client-7 	113
scalar tree_5_3_u00_r1_network.content_distribution 	client-8 	112
scalar tree_5_3_u00_r1_network.content_distribution 	client-9 	111
scalar tree_5_3_u00_r1_network.content_distribution 	client-10 	110
scalar tree_5_3_u00_r1_network.content_distribution 	client-11 	109
scalar tree_5_3_u00_r1_network.content_distribution 	client-12 	108
scalar tree_5_3_u00_r1_network.content_distribution 	client-13 	107
scalar tree_5_3_u00_r1_network.content_distribution 	client-14 	106
scalar tree_5_3_u00_r1_network.content_distribution 	client-15 	105
scalar tree_5_3_u00_r1_network.content_distribution 	client-16 	104
scalar tree_5_3_u00_r1_network.content_distribution 	client-17 	103
scalar tree_5_3_u00_r1_network.content_distribution 	client-18 	102
scalar tree_5_3_u00_r1_network.content_distribution 	client-19 	101
scalar tree_5_3_u00_r1_network.content_distribution 	client-20 	100
scalar tree_5_3_u00_r1_network.content_distribution 	client-21 	99
scalar tree_5_3_u00_r1_network.content_distribution 	client-22 	98
scalar tree_5_3_u00_r1_network.content_distribution 	client-23 	97
scalar tree_5_3_u00_r1_network.content_distribution 	client-24 	96
scalar tree_5_3_u00_r1_network.content_distribution 	client-25 	95
scalar tree_5_3_u00_r1_network.content_distribution 	client-26 	94
scalar tree_5_3_u00_r1_network.content_distribution 	client-27 	93
scalar tree_5_3_u00_r1_network.content_distribution 	client-28 	92
scalar tree_5_3_u00_r1_network.content_distribution 	client-29 	91
scalar tree_5_3_u00_r1_network.content_distribution 	client-30 	90
scalar tree_5_3_u00_r1_network.content_distribution 	client-31 	89
scalar tree_5_3_u00_r1_network.content_distribution 	client-32 	88
scalar tree_5_3_u00_r1_network.content_distribution 	client-33 	87
scalar tree_5_3_u00_r1_network.content_distribution 	client-34 	86
scalar tree_5_3_u00_r1_network.content_distribution 	client-35 	85
scalar tree_5_3_u00_r1_network.content_distribution 	client-36 	84
scalar tree_5_3_u00_r1_network.content_distribution 	client-37 	83
scalar tree_5_3_u00_r1_network.content_distribution 	client-38 	82
scalar tree_5_3_u00_r1_network.content_distribution 	client-39 	81
scalar tree_5_3_u00_r1_network.content_distribution 	client-40 	80
scalar tree_5_3_u00_r1_network.content_distribution 	client-41 	79
scalar tree_5_3_u00_r1_network.content_distribution 	client-42 	78
scalar tree_5_3_u00_r1_network.content_distribution 	client-43 	77
scalar tree_5_3_u00_r1_network.content_distribution 	client-44 	76
scalar tree_5_3_u00_r1_network.content_distribution 	client-45 	75
scalar tree_5_3_u00_r1_network.content_distribution 	client-46 	74
scalar tree_5_3_u00_r1_network.content_distribution 	client-47 	73
scalar tree_5_3_u00_r1_network.content_distribution 	client-48 	72
scalar tree_5_3_u00_r1_network.content_distribution 	client-49 	71
scalar tree_5_3_u00_r1_network.content_distribution 	client-50 	70
scalar tree_5_3_u00_r1_network.content_distribution 	client-51 	69
scalar tree_5_3_u00_r1_network.content_distribution 	client-52 	68
scalar tree_5_3_u00_r1_network.content_distribution 	client-53 	67
scalar tree_5_3_u00_r1_network.content_distribution 	client-54 	66
scalar tree_5_3_u00_r1_network.content_distribution 	client-55 	65
scalar tree_5_3_u00_r1_network.content_distribution 	client-56 	64
scalar tree_5_3_u00_r1_network.content_distribution 	client-57 	63
scalar tree_5_3_u00_r1_network.content_distribution 	client-58 	62
scalar tree_5_3_u00_r1_network.content_distribution 	client-59 	61
scalar tree_5_3_u00_r1_network.content_distribution 	client-60 	60
scalar tree_5_3_u00_r1_network.content_distribution 	client-61 	59
scalar tree_5_3_u00_r1_network.content_distribution 	client-62 	58
scalar tree_5_3_u00_r1_network.content_distribution 	client-63 	57
scalar tree_5_3_u00_r1_network.content_distribution 	client-64 	56
scalar tree_5_3_u00_r1_network.content_distribution 	client-65 	55
scalar tree_5_3_u00_r1_network.content_distribution 	client-66 	54
scalar tree_5_3_u00_r1_network.content_distribution 	client-67 	53
scalar tree_5_3_u00_r1_network.content_distribution 	client-68 	52
scalar tree_5_3_u00_r1_network.content_distribution 	client-69 	51
scalar tree_5_3_u00_r1_network.content_distribution 	client-70 	50
scalar tree_5_3_u00_r1_network.content_distribution 	client-71 	49
scalar tree_5_3_u00_r1_network.content_distribution 	client-72 	48
scalar tree_5_3_u00_r1_network.content_distribution 	client-73 	47
scalar tree_5_3_u00_r1_network.content_distribution 	client-74 	46
scalar tree_5_3_u00_r1_network.content_distribution 	client-75 	45
scalar tree_5_3_u00_r1_network.content_distribution 	client-76 	44
scalar tree_5_3_u00_r1_network.content_distribution 	client-77 	43
scalar tree_5_3_u00_r1_network.content_distribution 	client-78 	42
scalar tree_5_3_u00_r1_network.content_distribution 	client-79 	41
scalar tree_5_3_u00_r1_network.content_distribution 	client-80 	40
scalar tree_5_3_u00_r1_network.content_distribution 	repo-0_card 	100000
scalar tree_5_3_u00_r1_network.content_distribution 	repo-0_price 	0
scalar tree_5_3_u00_r1_network.statistics 	stabilization_time 	551.6
scalar tree_5_3_u00_r1_network.statistics 	p_hit 	0.17456488998008
scalar tree_5_3_u00_r1_network.statistics 	interests 	33399.107438017
scalar tree_5_3_u00_r1_network.statistics 	data 	25364.983471074
scalar tree_5_3_u00_r1_network.statistics 	hdistance 	3.7993136540858
scalar tree_5_3_u00_r1_network.statistics 	avg_time 	0.006313782461
scalar tree_5_3_u00_r1_network.statistics 	downloads 	972082
scalar tree_5_3_u00_r1_network.statistics 	total_cost 	0
scalar tree_5_3_u00_r1_network.statistics 	total_replicas 	100000
scalar tree_5_3_u00_r1_network.statistics 	inner_hit 	0.35735154030216
scalar tree_5_3_u00_r1_network.node[0].core_layer 	interests[0] 	628314
scalar tree_5_3_u00_r1_network.node[0].core_layer 	repo_load[0] 	624707
scalar tree_5_3_u00_r1_network.node[0].core_layer 	data[0] 	0
scalar tree_5_3_u00_r1_network.node[0].core_layer 	repo_int[0] 	624707
scalar tree_5_3_u00_r1_network.node[0].content_store 	p_hit[0] 	0.0057407601931518
scalar tree_5_3_u00_r1_network.node[0].content_store 	hits[0] 	3607
scalar tree_5_3_u00_r1_network.node[0].content_store 	misses[0] 	624707
scalar tree_5_3_u00_r1_network.node[0].content_store 	decision_yes[0] 	624707
scalar tree_5_3_u00_r1_network.node[0].content_store 	decision_no[0] 	0
scalar tree_5_3_u00_r1_network.node[0].content_store 	decision_ratio[0] 	1
scalar tree_5_3_u00_r1_network.node[1].core_layer 	interests[1] 	223310
scalar tree_5_3_u00_r1_network.node[1].core_layer 	data[1] 	221565
scalar tree_5_3_u00_r1_network.node[1].content_store 	p_hit[1] 	0.0077694684519278
scalar tree_5_3_u00_r1_network.node[1].content_store 	hits[1] 	1735
scalar tree_5_3_u00_r1_network.node[1].content_store 	misses[1] 	221575
scalar tree_5_3_u00_r1_network.node[1].content_store 	decision_yes[1] 	221489
scalar tree_5_3_u00_r1_network.node[1].content_store 	decision_no[1] 	0
scalar tree_5_3_u00_r1_network.node[1].content_store 	decision_ratio[1] 	1
scalar tree_5_3_u00_r1_network.node[2].core_layer 	interests[2] 	224105
scalar tree_5_3_u00_r1_network.node[2].core_layer 	data[2] 	222281
scalar tree_5_3_u00_r1_network.node[2].content_store 	p_hit[2] 	0.0081078066085094
scalar tree_5_3_u00_r1_network.node[2].content_store 	hits[2] 	1817
scalar tree_5_3_u00_r1_network.node[2].content_store 	misses[2] 	222288
scalar tree_5_3_u00_r1_network.node[2].content_store 	decision_yes[2] 	222218
scalar tree_5_3_u00_r1_network.node[2].content_store 	decision_no[2] 	0
scalar tree_5_3_u00_r1_network.node[2].content_store 	decision_ratio[2] 	1
scalar tree_5_3_u00_r1_network.node[3].core_layer 	interests[3] 	223954
scalar tree_5_3_u00_r1_network.node[3].core_layer 	data[3] 	222170
scalar tree_5_3_u00_r1_network.node[3].content_store 	p_hit[3] 	0.0079212695464247
scalar tree_5_3_u00_r1_network.node[3].content_store 	hits[3] 	1774
scalar tree_5_3_u00_r1_network.node[3].content_store 	misses[3] 	222180
scalar tree_5_3_u00_r1_network.node[3].content_store 	decision_yes[3] 	222095
scalar tree_5_3_u00_r1_network.node[3].content_store 	decision_no[3] 	0
scalar tree_5_3_u00_r1_network.node[3].content_store 	decision_ratio[3] 	1
scalar tree_5_3_u00_r1_network.node[4].core_layer 	interests[4] 	86540
scalar tree_5_3_u00_r1_network.node[4].core_layer 	data[4] 	83903
scalar tree_5_3_u00_r1_network.node[4].content_store 	p_hit[4] 	0.030390570834296
scalar tree_5_3_u00_r1_network.node[4].content_store 	hits[4] 	2630
scalar tree_5_3_u00_r1_network.node[4].content_store 	misses[4] 	83910
scalar tree_5_3_u00_r1_network.node[4].content_store 	decision_yes[4] 	83882
scalar tree_5_3_u00_r1_network.node[4].content_store 	decision_no[4] 	0
scalar tree_5_3_u00_r1_network.node[4].content_store 	decision_ratio[4] 	1
scalar tree_5_3_u00_r1_network.node[5].core_layer 	interests[5] 	86766
scalar tree_5_3_u00_r1_network.node[5].core_layer 	data[5] 	84099
scalar tree_5_3_u00_r1_network.node[5].content_store 	p_hit[5] 	0.030726321370122
scalar tree_5_3_u00_r1_network.node[5].content_store 	hits[5] 	2666
scalar tree_5_3_u00_r1_network.node[5].content_store 	misses[5] 	84100
scalar tree_5_3_u00_r1_network.node[5].content_store 	decision_yes[5] 	84075
scalar tree_5_3_u00_r1_network.node[5].content_store 	decision_no[5] 	0
scalar tree_5_3_u00_r1_network.node[5].content_store 	decision_ratio[5] 	1
scalar tree_5_3_u00_r1_network.node[6].core_layer 	interests[6] 	87378
scalar tree_5_3_u00_r1_network.node[6].core_layer 	data[6] 	84754
scalar tree_5_3_u00_r1_network.node[6].content_store 	p_hit[6] 	0.029961775275241
scalar tree_5_3_u00_r1_network.node[6].content_store 	hits[6] 	2618
scalar tree_5_3_u00_r1_network.node[6].content_store 	misses[6] 	84760
scalar tree_5_3_u00_r1_network.node[6].content_store 	decision_yes[6] 	84727
scalar tree_5_3_u00_r1_network.node[6].content_store 	decision_no[6] 	0
scalar tree_5_3_u00_r1_network.node[6].content_store 	decision_ratio[6] 	1
scalar tree_5_3_u00_r1_network.node[7].core_layer 	interests[7] 	86624
scalar tree_5_3_u00_r1_network.node[7].core_layer 	data[7] 	83999
scalar tree_5_3_u00_r1_network.node[7].content_store 	p_hit[7] 	0.030211026967122
scalar tree_5_3_u00_r1_network.node[7].content_store 	hits[7] 	2617
scalar tree_5_3_u00_r1_network.node[7].content_store 	misses[7] 	84007
scalar tree_5_3_u00_r1_network.node[7].content_store 	decision_yes[7] 	83975
scalar tree_5_3_u00_r1_network.node[7].content_store 	decision_no[7] 	0
scalar tree_5_3_u00_r1_network.node[7].content_store 	decision_ratio[7] 	1
scalar tree_5_3_u00_r1_network.node[8].core_layer 	interests[8] 	87509
scalar tree_5_3_u00_r1_network.node[8].core_layer 	data[8] 	84907
scalar tree_5_3_u00_r1_network.node[8].content_store 	p_hit[8] 	0.029642665325852
scalar tree_5_3_u00_r1_network.node[8].content_store 	hits[8] 	2594
scalar tree_5_3_u00_r1_network.node[8].content_store 	misses[8] 	84915
scalar tree_5_3_u00_r1_network.node[8].content_store 	decision_yes[8] 	84889
scalar tree_5_3_u00_r1_network.node[8].content_store 	decision_no[8] 	0
scalar tree_5_3_u00_r1_network.node[8].content_store 	decision_ratio[8] 	1
scalar tree_5_3_u00_r1_network.node[9].core_layer 	interests[9] 	86795
scalar tree_5_3_u00_r1_network.node[9].core_layer 	data[9] 	84229
scalar tree_5_3_u00_r1_network.node[9].content_store 	p_hit[9] 	0.029460222363039
scalar tree_5_3_u00_r1_network.node[9].content_store 	hits[9] 	2557
scalar tree_5_3_u00_r1_network.node[9].content_store 	misses[9] 	84238
scalar tree_5_3_u00_r1_network.node[9].content_store 	decision_yes[9] 	84208
scalar tree_5_3_u00_r1_network.node[9].content_store 	decision_no[9] 	0
scalar tree_5_3_u00_r1_network.node[9].content_store 	decision_ratio[9] 	1
scalar tree_5_3_u00_r1_network.node[10].core_layer 	interests[10] 	87215
scalar tree_5_3_u00_r1_network.node[10].core_layer 	data[10] 	84671
scalar tree_5_3_u00_r1_network.node[10].content_store 	p_hit[10] 	0.029066101014734
scalar tree_5_3_u00_r1_network.node[10].content_store 	hits[10] 	2535
scalar tree_5_3_u00_r1_network.node[10].content_store 	misses[10] 	84680
scalar tree_5_3_u00_r1_network.node[10].content_store 	decision_yes[10] 	84652
scalar tree_5_3_u00_r1_network.node[10].content_store 	decision_no[10] 	0
scalar tree_5_3_u00_r1_network.node[10].content_store 	decision_ratio[10] 	1
scalar tree_5_3_u00_r1_network.node[11].core_layer 	interests[11] 	86779
scalar tree_5_3_u00_r1_network.node[11].core_layer 	data[11] 	84157
scalar tree_5_3_u00_r1_network.node[11].content_store 	p_hit[11] 	0.030145542124247
scalar tree_5_3_u00_r1_network.node[11].content_store 	hits[11] 	2616
scalar tree_5_3_u00_r1_network.node[11].content_store 	misses[11] 	84163
scalar tree_5_3_u00_r1_network.node[11].content_store 	decision_yes[11] 	84137
scalar tree_5_3_u00_r1_network.node[11].content_store 	decision_no[11] 	0
scalar tree_5_3_u00_r1_network.node[11].content_store 	decision_ratio[11] 	1
scalar tree_5_3_u00_r1_network.node[12].core_layer 	interests[12] 	86769
scalar tree_5_3_u00_r1_network.node[12].core_layer 	data[12] 	84193
scalar tree_5_3_u00_r1_network.node[12].content_store 	p_hit[12] 	0.029630397953186
scalar tree_5_3_u00_r1_network.node[12].content_store 	hits[12] 	2571
scalar tree_5_3_u00_r1_network.node[12].content_store 	misses[12] 	84198
scalar tree_5_3_u00_r1_network.node[12].content_store 	decision_yes[12] 	84158
scalar tree_5_3_u00_r1_network.node[12].content_store 	decision_no[12] 	0
scalar tree_5_3_u00_r1_network.node[12].content_store 	decision_ratio[12] 	1
scalar tree_5_3_u00_r1_network.node[13].core_layer 	interests[13] 	33306
scalar tree_5_3_u00_r1_network.node[13].core_layer 	data[13] 	30656
scalar tree_5_3_u00_r1_network.node[13].content_store 	p_hit[13] 	0.079445145018916
scalar tree_5_3_u00_r1_network.node[13].content_store 	hits[13] 	2646
scalar tree_5_3_u00_r1_network.node[13].content_store 	misses[13] 	30660
scalar tree_5_3_u00_r1_network.node[13].content_store 	decision_yes[13] 	30654
scalar tree_5_3_u00_r1_network.node[13].content_store 	decision_no[13] 	0
scalar tree_5_3_u00_r1_network.node[13].content_store 	decision_ratio[13] 	1
scalar tree_5_3_u00_r1_network.node[14].core_layer 	interests[14] 	33284
scalar tree_5_3_u00_r1_network.node[14].core_layer 	data[14] 	30607
scalar tree_5_3_u00_r1_network.node[14].content_store 	p_hit[14] 	0.08033890157433
scalar tree_5_3_u00_r1_network.node[14].content_store 	hits[14] 	2674
scalar tree_5_3_u00_r1_network.node[14].content_store 	misses[14] 	30610
scalar tree_5_3_u00_r1_network.node[14].content_store 	decision_yes[14] 	30605
scalar tree_5_3_u00_r1_network.node[14].content_store 	decision_no[14] 	0
scalar tree_5_3_u00_r1_network.node[14].content_store 	decision_ratio[14] 	1
scalar tree_5_3_u00_r1_network.node[15].core_layer 	interests[15] 	33165
scalar tree_5_3_u00_r1_network.node[15].core_layer 	data[15] 	30557
scalar tree_5_3_u00_r1_network.node[15].content_store 	p_hit[15] 	0.078516508367255
scalar tree_5_3_u00_r1_network.node[15].content_store 	hits[15] 	2604
scalar tree_5_3_u00_r1_network.node[15].content_store 	misses[15] 	30561
scalar tree_5_3_u00_r1_network.node[15].content_store 	decision_yes[15] 	30557
scalar tree_5_3_u00_r1_network.node[15].content_store 	decision_no[15] 	0
scalar tree_5_3_u00_r1_network.node[15].content_store 	decision_ratio[15] 	1
scalar tree_5_3_u00_r1_network.node[16].core_layer 	interests[16] 	33118
scalar tree_5_3_u00_r1_network.node[16].core_layer 	data[16] 	30544
scalar tree_5_3_u00_r1_network.node[16].content_store 	p_hit[16] 	0.07769188960686
scalar tree_5_3_u00_r1_network.node[16].content_store 	hits[16] 	2573
scalar tree_5_3_u00_r1_network.node[16].content_store 	misses[16] 	30545
scalar tree_5_3_u00_r1_network.node[16].content_store 	decision_yes[16] 	30541
scalar tree_5_3_u00_r1_network.node[16].content_store 	decision_no[16] 	0
scalar tree_5_3_u00_r1_network.node[16].content_store 	decision_ratio[16] 	1
scalar tree_5_3_u00_r1_network.node[17].core_layer 	interests[17] 	33191
scalar tree_5_3_u00_r1_network.node[17].core_layer 	data[17] 	30644
scalar tree_5_3_u00_r1_network.node[17].content_store 	p_hit[17] 	0.076677412551595
scalar tree_5_3_u00_r1_network.node[17].content_store 	hits[17] 	2545
scalar tree_5_3_u00_r1_network.node[17].content_store 	misses[17] 	30646
scalar tree_5_3_u00_r1_network.node[17].content_store 	decision_yes[17] 	30639
scalar tree_5_3_u00_r1_network.node[17].content_store 	decision_no[17] 	0
scalar tree_5_3_u00_r1_network.node[17].content_store 	decision_ratio[17] 	1
scalar tree_5_3_u00_r1_network.node[18].core_layer 	interests[18] 	33615
scalar tree_5_3_u00_r1_network.node[18].core_layer 	data[18] 	30988
scalar tree_5_3_u00_r1_network.node[18].content_store 	p_hit[18] 	0.078090138331102
scalar tree_5_3_u00_r1_network.node[18].content_store 	hits[18] 	2625
scalar tree_5_3_u00_r1_network.node[18].content_store 	misses[18] 	30990
scalar tree_5_3_u00_r1_network.node[18].content_store 	decision_yes[18] 	30986
scalar tree_5_3_u00_r1_network.node[18].content_store 	decision_no[18] 	0
scalar tree_5_3_u00_r1_network.node[18].content_store 	decision_ratio[18] 	1
scalar tree_5_3_u00_r1_network.node[19].core_layer 	interests[19] 	33884
scalar tree_5_3_u00_r1_network.node[19].core_layer 	data[19] 	31250
scalar tree_5_3_u00_r1_network.node[19].content_store 	p_hit[19] 	0.077706292055247
scalar tree_5_3_u00_r1_network.node[19].content_store 	hits[19] 	2633
scalar tree_5_3_u00_r1_network.node[19].content_store 	misses[19] 	31251
scalar tree_5_3_u00_r1_network.node[19].content_store 	decision_yes[19] 	31250
scalar tree_5_3_u00_r1_network.node[19].content_store 	decision_no[19] 	0
scalar tree_5_3_u00_r1_network.node[19].content_store 	decision_ratio[19] 	1
scalar tree_5_3_u00_r1_network.node[20].core_layer 	interests[20] 	33432
scalar tree_5_3_u00_r1_network.node[20].core_layer 	data[20] 	30703
scalar tree_5_3_u00_r1_network.node[20].content_store 	p_hit[20] 	0.081628379995214
scalar tree_5_3_u00_r1_network.node[20].content_store 	hits[20] 	2729
scalar tree_5_3_u00_r1_network.node[20].content_store 	misses[20] 	30703
scalar tree_5_3_u00_r1_network.node[20].content_store 	decision_yes[20] 	30696
scalar tree_5_3_u00_r1_network.node[20].content_store 	decision_no[20] 	0
scalar tree_5_3_u00_r1_network.node[20].content_store 	decision_ratio[20] 	1
scalar tree_5_3_u00_r1_network.node[21].core_layer 	interests[21] 	33441
scalar tree_5_3_u00_r1_network.node[21].core_layer 	data[21] 	30795
scalar tree_5_3_u00_r1_network.node[21].content_store 	p_hit[21] 	0.079094524685267
scalar tree_5_3_u00_r1_network.node[21].content_store 	hits[21] 	2645
scalar tree_5_3_u00_r1_network.node[21].content_store 	misses[21] 	30796
scalar tree_5_3_u00_r1_network.node[21].content_store 	decision_yes[21] 	30792
scalar tree_5_3_u00_r1_network.node[21].content_store 	decision_no[21] 	0
scalar tree_5_3_u00_r1_network.node[21].content_store 	decision_ratio[21] 	1
scalar tree_5_3_u00_r1_network.node[22].core_layer 	interests[22] 	32882
scalar tree_5_3_u00_r1_network.node[22].core_layer 	data[22] 	30320
scalar tree_5_3_u00_r1_network.node[22].content_store 	p_hit[22] 	0.077884556900432
scalar tree_5_3_u00_r1_network.node[22].content_store 	hits[22] 	2561
scalar tree_5_3_u00_r1_network.node[22].content_store 	misses[22] 	30321
scalar tree_5_3_u00_r1_network.node[22].content_store 	decision_yes[22] 	30312
scalar tree_5_3_u00_r1_network.node[22].content_store 	decision_no[22] 	0
scalar tree_5_3_u00_r1_network.node[22].content_store 	decision_ratio[22] 	1
scalar tree_5_3_u00_r1_network.node[23].core_layer 	interests[23] 	33071
scalar tree_5_3_u00_r1_network.node[23].core_layer 	data[23] 	30524
scalar tree_5_3_u00_r1_network.node[23].content_store 	p_hit[23] 	0.076925402920988
scalar tree_5_3_u00_r1_network.node[23].content_store 	hits[23] 	2544
scalar tree_5_3_u00_r1_network.node[23].content_store 	misses[23] 	30527
scalar tree_5_3_u00_r1_network.node[23].content_store 	decision_yes[23] 	30523
scalar tree_5_3_u00_r1_network.node[23].content_store 	decision_no[23] 	0
scalar tree_5_3_u00_r1_network.node[23].content_store 	decision_ratio[23] 	1
scalar tree_5_3_u00_r1_network.node[24].core_layer 	interests[24] 	33628
scalar tree_5_3_u00_r1_network.node[24].core_layer 	data[24] 	31140
scalar tree_5_3_u00_r1_network.node[24].content_store 	p_hit[24] 	0.073926489829904
scalar tree_5_3_u00_r1_network.node[24].content_store 	hits[24] 	2486
scalar tree_5_3_u00_r1_network.node[24].content_store 	misses[24] 	31142
scalar tree_5_3_u00_r1_network.node[24].content_store 	decision_yes[24] 	31136
scalar tree_5_3_u00_r1_network.node[24].content_store 	decision_no[24] 	0
scalar tree_5_3_u00_r1_network.node[24].content_store 	decision_ratio[24] 	1
scalar tree_5_3_u00_r1_network.node[25].core_layer 	interests[25] 	33619
scalar tree_5_3_u00_r1_network.node[25].core_layer 	data[25] 	31007
scalar tree_5_3_u00_r1_network.node[25].content_store 	p_hit[25] 	0.077753651209138
scalar tree_5_3_u00_r1_network.node[25].content_store 	hits[25] 	2614
scalar tree_5_3_u00_r1_network.node[25].content_store 	misses[25] 	31005
scalar tree_5_3_u00_r1_network.node[25].content_store 	decision_yes[25] 	31005
scalar tree_5_3_u00_r1_network.node[25].content_store 	decision_no[25] 	0
scalar tree_5_3_u00_r1_network.node[25].content_store 	decision_ratio[25] 	1
scalar tree_5_3_u00_r1_network.node[26].core_layer 	interests[26] 	33546
scalar tree_5_3_u00_r1_network.node[26].core_layer 	data[26] 	30874
scalar tree_5_3_u00_r1_network.node[26].content_store 	p_hit[26] 	0.079622011566208
scalar tree_5_3_u00_r1_network.node[26].content_store 	hits[26] 	2671
scalar tree_5_3_u00_r1_network.node[26].content_store 	misses[26] 	30875
scalar tree_5_3_u00_r1_network.node[26].content_store 	decision_yes[26] 	30873
scalar tree_5_3_u00_r1_network.node[26].content_store 	decision_no[26] 	0
scalar tree_5_3_u00_r1_network.node[26].content_store 	decision_ratio[26] 	1
scalar tree_5_3_u00_r1_network.node[27].core_layer 	interests[27] 	33635
scalar tree_5_3_u00_r1_network.node[27].core_layer 	data[27] 	31040
scalar tree_5_3_u00_r1_network.node[27].content_store 	p_hit[27] 	0.077032852683217
scalar tree_5_3_u00_r1_network.node[27].content_store 	hits[27] 	2591
scalar tree_5_3_u00_r1_network.node[27].content_store 	misses[27] 	31044
scalar tree_5_3_u00_r1_network.node[27].content_store 	decision_yes[27] 	31038
scalar tree_5_3_u00_r1_network.node[27].content_store 	decision_no[27] 	0
scalar tree_5_3_u00_r1_network.node[27].content_store 	decision_ratio[27] 	1
scalar tree_5_3_u00_r1_network.node[28].core_layer 	interests[28] 	33163
scalar tree_5_3_u00_r1_network.node[28].core_layer 	data[28] 	30631
scalar tree_5_3_u00_r1_network.node[28].content_store 	p_hit[28] 	0.076289841087959
scalar tree_5_3_u00_r1_network.node[28].content_store 	hits[28] 	2530
scalar tree_5_3_u00_r1_network.node[28].content_store 	misses[28] 	30633
scalar tree_5_3_u00_r1_network.node[28].content_store 	decision_yes[28] 	30628
scalar tree_5_3_u00_r1_network.node[28].content_store 	decision_no[28] 	0
scalar tree_5_3_u00_r1_network.node[28].content_store 	decision_ratio[28] 	1
scalar tree_5_3_u00_r1_network.node[29].core_layer 	interests[29] 	33478
scalar tree_5_3_u00_r1_network.node[29].core_layer 	data[29] 	30864
scalar tree_5_3_u00_r1_network.node[29].content_store 	p_hit[29] 	0.078081127904893
scalar tree_5_3_u00_r1_network.node[29].content_store 	hits[29] 	2614
scalar tree_5_3_u00_r1_network.node[29].content_store 	misses[29] 	30864
scalar tree_5_3_u00_r1_network.node[29].content_store 	decision_yes[29] 	30864
scalar tree_5_3_u00_r1_network.node[29].content_store 	decision_no[29] 	0
scalar tree_5_3_u00_r1_network.node[29].content_store 	decision_ratio[29] 	1
scalar tree_5_3_u00_r1_network.node[30].core_layer 	interests[30] 	33344
scalar tree_5_3_u00_r1_network.node[30].core_layer 	data[30] 	30625
scalar tree_5_3_u00_r1_network.node[30].content_store 	p_hit[30] 	0.081483925143954
scalar tree_5_3_u00_r1_network.node[30].content_store 	hits[30] 	2717
scalar tree_5_3_u00_r1_network.node[30].content_store 	misses[30] 	30627
scalar tree_5_3_u00_r1_network.node[30].content_store 	decision_yes[30] 	30624
scalar tree_5_3_u00_r1_network.node[30].content_store 	decision_no[30] 	0
scalar tree_5_3_u00_r1_network.node[30].content_store 	decision_ratio[30] 	1
scalar tree_5_3_u00_r1_network.node[31].core_layer 	interests[31] 	33378
scalar tree_5_3_u00_r1_network.node[31].core_layer 	data[31] 	30702
scalar tree_5_3_u00_r1_network.node[31].content_store 	p_hit[31] 	0.080112649050273
scalar tree_5_3_u00_r1_network.node[31].content_store 	hits[31] 	2674
scalar tree_5_3_u00_r1_network.node[31].content_store 	misses[31] 	30704
scalar tree_5_3_u00_r1_network.node[31].content_store 	decision_yes[31] 	30698
scalar tree_5_3_u00_r1_network.node[31].content_store 	decision_no[31] 	0
scalar tree_5_3_u00_r1_network.node[31].content_store 	decision_ratio[31] 	1
scalar tree_5_3_u00_r1_network.node[32].core_layer 	interests[32] 	33454
scalar tree_5_3_u00_r1_network.node[32].core_layer 	data[32] 	30898
scalar tree_5_3_u00_r1_network.node[32].content_store 	p_hit[32] 	0.076373527829258
scalar tree_5_3_u00_r1_network.node[32].content_store 	hits[32] 	2555
scalar tree_5_3_u00_r1_network.node[32].content_store 	misses[32] 	30899
scalar tree_5_3_u00_r1_network.node[32].content_store 	decision_yes[32] 	30895
scalar tree_5_3_u00_r1_network.node[32].content_store 	decision_no[32] 	0
scalar tree_5_3_u00_r1_network.node[32].content_store 	decision_ratio[32] 	1
scalar tree_5_3_u00_r1_network.node[33].core_layer 	interests[33] 	33737
scalar tree_5_3_u00_r1_network.node[33].core_layer 	data[33] 	31106
scalar tree_5_3_u00_r1_network.node[33].content_store 	p_hit[33] 	0.077926312357352
scalar tree_5_3_u00_r1_network.node[33].content_store 	hits[33] 	2629
scalar tree_5_3_u00_r1_network.node[33].content_store 	misses[33] 	31108
scalar tree_5_3_u00_r1_network.node[33].content_store 	decision_yes[33] 	31106
scalar tree_5_3_u00_r1_network.node[33].content_store 	decision_no[33] 	0
scalar tree_5_3_u00_r1_network.node[33].content_store 	decision_ratio[33] 	1
scalar tree_5_3_u00_r1_network.node[34].core_layer 	interests[34] 	33291
scalar tree_5_3_u00_r1_network.node[34].core_layer 	data[34] 	30735
scalar tree_5_3_u00_r1_network.node[34].content_store 	p_hit[34] 	0.076687392989096
scalar tree_5_3_u00_r1_network.node[34].content_store 	hits[34] 	2553
scalar tree_5_3_u00_r1_network.node[34].content_store 	misses[34] 	30738
scalar tree_5_3_u00_r1_network.node[34].content_store 	decision_yes[34] 	30733
scalar tree_5_3_u00_r1_network.node[34].content_store 	decision_no[34] 	0
scalar tree_5_3_u00_r1_network.node[34].content_store 	decision_ratio[34] 	1
scalar tree_5_3_u00_r1_network.node[35].core_layer 	interests[35] 	33153
scalar tree_5_3_u00_r1_network.node[35].core_layer 	data[35] 	30610
scalar tree_5_3_u00_r1_network.node[35].content_store 	p_hit[35] 	0.076554157994752
scalar tree_5_3_u00_r1_network.node[35].content_store 	hits[35] 	2538
scalar tree_5_3_u00_r1_network.node[35].content_store 	misses[35] 	30615
scalar tree_5_3_u00_r1_network.node[35].content_store 	decision_yes[35] 	30606
scalar tree_5_3_u00_r1_network.node[35].content_store 	decision_no[35] 	0
scalar tree_5_3_u00_r1_network.node[35].content_store 	decision_ratio[35] 	1
scalar tree_5_3_u00_r1_network.node[36].core_layer 	interests[36] 	33382
scalar tree_5_3_u00_r1_network.node[36].core_layer 	data[36] 	30752
scalar tree_5_3_u00_r1_network.node[36].content_store 	p_hit[36] 	0.078725061410341
scalar tree_5_3_u00_r1_network.node[36].content_store 	hits[36] 	2628
scalar tree_5_3_u00_r1_network.node[36].content_store 	misses[36] 	30754
scalar tree_5_3_u00_r1_network.node[36].content_store 	decision_yes[36] 	30751
scalar tree_5_3_u00_r1_network.node[36].content_store 	decision_no[36] 	0
scalar tree_5_3_u00_r1_network.node[36].content_store 	decision_ratio[36] 	1
scalar tree_5_3_u00_r1_network.node[37].core_layer 	interests[37] 	33506
scalar tree_5_3_u00_r1_network.node[37].core_layer 	data[37] 	30939
scalar tree_5_3_u00_r1_network.node[37].content_store 	p_hit[37] 	0.076583298513699
scalar tree_5_3_u00_r1_network.node[37].content_store 	hits[37] 	2566
scalar tree_5_3_u00_r1_network.node[37].content_store 	misses[37] 	30940
scalar tree_5_3_u00_r1_network.node[37].content_store 	decision_yes[37] 	30937
scalar tree_5_3_u00_r1_network.node[37].content_store 	decision_no[37] 	0
scalar tree_5_3_u00_r1_network.node[37].content_store 	decision_ratio[37] 	1
scalar tree_5_3_u00_r1_network.node[38].core_layer 	interests[38] 	33162
scalar tree_5_3_u00_r1_network.node[38].core_layer 	data[38] 	30512
scalar tree_5_3_u00_r1_network.node[38].content_store 	p_hit[38] 	0.079790121223087
scalar tree_5_3_u00_r1_network.node[38].content_store 	hits[38] 	2646
scalar tree_5_3_u00_r1_network.node[38].content_store 	misses[38] 	30516
scalar tree_5_3_u00_r1_network.node[38].content_store 	decision_yes[38] 	30508
scalar tree_5_3_u00_r1_network.node[38].content_store 	decision_no[38] 	0
scalar tree_5_3_u00_r1_network.node[38].content_store 	decision_ratio[38] 	1
scalar tree_5_3_u00_r1_network.node[39].core_layer 	interests[39] 	33283
scalar tree_5_3_u00_r1_network.node[39].core_layer 	data[39] 	30609
scalar tree_5_3_u00_r1_network.node[39].content_store 	p_hit[39] 	0.08028122464922
scalar tree_5_3_u00_r1_network.node[39].content_store 	hits[39] 	2672
scalar tree_5_3_u00_r1_network.node[39].content_store 	misses[39] 	30611
scalar tree_5_3_u00_r1_network.node[39].content_store 	decision_yes[39] 	30607
scalar tree_5_3_u00_r1_network.node[39].content_store 	decision_no[39] 	0
scalar tree_5_3_u00_r1_network.node[39].content_store 	decision_ratio[39] 	1
scalar tree_5_3_u00_r1_network.node[40].core_layer 	interests[40] 	12842
scalar tree_5_3_u00_r1_network.node[40].core_layer 	data[40] 	9920
scalar tree_5_3_u00_r1_network.node[40].content_store 	p_hit[40] 	0.22745678243264
scalar tree_5_3_u00_r1_network.node[40].content_store 	hits[40] 	2921
scalar tree_5_3_u00_r1_network.node[40].content_store 	misses[40] 	9921
scalar tree_5_3_u00_r1_network.node[40].content_store 	decision_yes[40] 	9920
scalar tree_5_3_u00_r1_network.node[40].content_store 	decision_no[40] 	0
scalar tree_5_3_u00_r1_network.node[40].content_store 	decision_ratio[40] 	1
scalar tree_5_3_u00_r1_network.node[41].core_layer 	interests[41] 	13045
scalar tree_5_3_u00_r1_network.node[41].core_layer 	data[41] 	10005
scalar tree_5_3_u00_r1_network.node[41].content_store 	p_hit[41] 	0.23288616328095
scalar tree_5_3_u00_r1_network.node[41].content_store 	hits[41] 	3038
scalar tree_5_3_u00_r1_network.node[41].content_store 	misses[41] 	10007
scalar tree_5_3_u00_r1_network.node[41].content_store 	decision_yes[41] 	10005
scalar tree_5_3_u00_r1_network.node[41].content_store 	decision_no[41] 	0
scalar tree_5_3_u00_r1_network.node[41].content_store 	decision_ratio[41] 	1
scalar tree_5_3_u00_r1_network.node[42].core_layer 	interests[42] 	13167
scalar tree_5_3_u00_r1_network.node[42].core_layer 	data[42] 	10103
scalar tree_5_3_u00_r1_network.node[42].content_store 	p_hit[42] 	0.23262702210071
scalar tree_5_3_u00_r1_network.node[42].content_store 	hits[42] 	3063
scalar tree_5_3_u00_r1_network.node[42].content_store 	misses[42] 	10104
scalar tree_5_3_u00_r1_network.node[42].content_store 	decision_yes[42] 	10103
scalar tree_5_3_u00_r1_network.node[42].content_store 	decision_no[42] 	0
scalar tree_5_3_u00_r1_network.node[42].content_store 	decision_ratio[42] 	1
scalar tree_5_3_u00_r1_network.node[43].core_layer 	interests[43] 	13000
scalar tree_5_3_u00_r1_network.node[43].core_layer 	data[43] 	10018
scalar tree_5_3_u00_r1_network.node[43].content_store 	p_hit[43] 	0.22923076923077
scalar tree_5_3_u00_r1_network.node[43].content_store 	hits[43] 	2980
scalar tree_5_3_u00_r1_network.node[43].content_store 	misses[43] 	10020
scalar tree_5_3_u00_r1_network.node[43].content_store 	decision_yes[43] 	10018
scalar tree_5_3_u00_r1_network.node[43].content_store 	decision_no[43] 	0
scalar tree_5_3_u00_r1_network.node[43].content_store 	decision_ratio[43] 	1
scalar tree_5_3_u00_r1_network.node[44].core_layer 	interests[44] 	13050
scalar tree_5_3_u00_r1_network.node[44].core_layer 	data[44] 	9986
scalar tree_5_3_u00_r1_network.node[44].content_store 	p_hit[44] 	0.23478927203065
scalar tree_5_3_u00_r1_network.node[44].content_store 	hits[44] 	3064
scalar tree_5_3_u00_r1_network.node[44].content_store 	misses[44] 	9986
scalar tree_5_3_u00_r1_network.node[44].content_store 	decision_yes[44] 	9986
scalar tree_5_3_u00_r1_network.node[44].content_store 	decision_no[44] 	0
scalar tree_5_3_u00_r1_network.node[44].content_store 	decision_ratio[44] 	1
scalar tree_5_3_u00_r1_network.node[45].core_layer 	interests[45] 	12968
scalar tree_5_3_u00_r1_network.node[45].core_layer 	data[45] 	10017
scalar tree_5_3_u00_r1_network.node[45].content_store 	p_hit[45] 	0.22748303516348
scalar tree_5_3_u00_r1_network.node[45].content_store 	hits[45] 	2950
scalar tree_5_3_u00_r1_network.node[45].content_store 	misses[45] 	10018
scalar tree_5_3_u00_r1_network.node[45].content_store 	decision_yes[45] 	10017
scalar tree_5_3_u00_r1_network.node[45].content_store 	decision_no[45] 	0
scalar tree_5_3_u00_r1_network.node[45].content_store 	decision_ratio[45] 	1
scalar tree_5_3_u00_r1_network.node[46].core_layer 	interests[46] 	13020
scalar tree_5_3_u00_r1_network.node[46].core_layer 	data[46] 	10031
scalar tree_5_3_u00_r1_network.node[46].content_store 	p_hit[46] 	0.2294930875576
scalar tree_5_3_u00_r1_network.node[46].content_store 	hits[46] 	2988
scalar tree_5_3_u00_r1_network.node[46].content_store 	misses[46] 	10032
scalar tree_5_3_u00_r1_network.node[46].content_store 	decision_yes[46] 	10031
scalar tree_5_3_u00_r1_network.node[46].content_store 	decision_no[46] 	0
scalar tree_5_3_u00_r1_network.node[46].content_store 	decision_ratio[46] 	1
scalar tree_5_3_u00_r1_network.node[47].core_layer 	interests[47] 	13002
scalar tree_5_3_u00_r1_network.node[47].core_layer 	data[47] 	9927
scalar tree_5_3_u00_r1_network.node[47].content_store 	p_hit[47] 	0.23642516535918
scalar tree_5_3_u00_r1_network.node[47].content_store 	hits[47] 	3074
scalar tree_5_3_u00_r1_network.node[47].content_store 	misses[47] 	9928
scalar tree_5_3_u00_r1_network.node[47].content_store 	decision_yes[47] 	9927
scalar tree_5_3_u00_r1_network.node[47].content_store 	decision_no[47] 	0
scalar tree_5_3_u00_r1_network.node[47].content_store 	decision_ratio[47] 	1
scalar tree_5_3_u00_r1_network.node[48].core_layer 	interests[48] 	12955
scalar tree_5_3_u00_r1_network.node[48].core_layer 	data[48] 	9974
scalar tree_5_3_u00_r1_network.node[48].content_store 	p_hit[48] 	0.23010420686993
scalar tree_5_3_u00_r1_network.node[48].content_store 	hits[48] 	2981
scalar tree_5_3_u00_r1_network.node[48].content_store 	misses[48] 	9974
scalar tree_5_3_u00_r1_network.node[48].content_store 	decision_yes[48] 	9974
scalar tree_5_3_u00_r1_network.node[48].content_store 	decision_no[48] 	0
scalar tree_5_3_u00_r1_network.node[48].content_store 	decision_ratio[48] 	1
scalar tree_5_3_u00_r1_network.node[49].core_layer 	interests[49] 	12974
scalar tree_5_3_u00_r1_network.node[49].core_layer 	data[49] 	9976
scalar tree_5_3_u00_r1_network.node[49].content_store 	p_hit[49] 	0.23100046246339
scalar tree_5_3_u00_r1_network.node[49].content_store 	hits[49] 	2997
scalar tree_5_3_u00_r1_network.node[49].content_store 	misses[49] 	9977
scalar tree_5_3_u00_r1_network.node[49].content_store 	decision_yes[49] 	9976
scalar tree_5_3_u00_r1_network.node[49].content_store 	decision_no[49] 	0
scalar tree_5_3_u00_r1_network.node[49].content_store 	decision_ratio[49] 	1
scalar tree_5_3_u00_r1_network.node[50].core_layer 	interests[50] 	13001
scalar tree_5_3_u00_r1_network.node[50].core_layer 	data[50] 	9969
scalar tree_5_3_u00_r1_network.node[50].content_store 	p_hit[50] 	0.23321282978232
scalar tree_5_3_u00_r1_network.node[50].content_store 	hits[50] 	3032
scalar tree_5_3_u00_r1_network.node[50].content_store 	misses[50] 	9969
scalar tree_5_3_u00_r1_network.node[50].content_store 	decision_yes[50] 	9969
scalar tree_5_3_u00_r1_network.node[50].content_store 	decision_no[50] 	0
scalar tree_5_3_u00_r1_network.node[50].content_store 	decision_ratio[50] 	1
scalar tree_5_3_u00_r1_network.node[51].core_layer 	interests[51] 	12942
scalar tree_5_3_u00_r1_network.node[51].core_layer 	data[51] 	9959
scalar tree_5_3_u00_r1_network.node[51].content_store 	p_hit[51] 	0.23041261010663
scalar tree_5_3_u00_r1_network.node[51].content_store 	hits[51] 	2982
scalar tree_5_3_u00_r1_network.node[51].content_store 	misses[51] 	9960
scalar tree_5_3_u00_r1_network.node[51].content_store 	decision_yes[51] 	9959
scalar tree_5_3_u00_r1_network.node[51].content_store 	decision_no[51] 	0
scalar tree_5_3_u00_r1_network.node[51].content_store 	decision_ratio[51] 	1
scalar tree_5_3_u00_r1_network.node[52].core_layer 	interests[52] 	12957
scalar tree_5_3_u00_r1_network.node[52].core_layer 	data[52] 	9835
scalar tree_5_3_u00_r1_network.node[52].content_store 	p_hit[52] 	0.24087365902601
scalar tree_5_3_u00_r1_network.node[52].content_store 	hits[52] 	3121
scalar tree_5_3_u00_r1_network.node[52].content_store 	misses[52] 	9836
scalar tree_5_3_u00_r1_network.node[52].content_store 	decision_yes[52] 	9835
scalar tree_5_3_u00_r1_network.node[52].content_store 	decision_no[52] 	0
scalar tree_5_3_u00_r1_network.node[52].content_store 	decision_ratio[52] 	1
scalar tree_5_3_u00_r1_network.node[53].core_layer 	interests[53] 	13066
scalar tree_5_3_u00_r1_network.node[53].core_layer 	data[53] 	9988
scalar tree_5_3_u00_r1_network.node[53].content_store 	p_hit[53] 	0.2356497780499
scalar tree_5_3_u00_r1_network.node[53].content_store 	hits[53] 	3079
scalar tree_5_3_u00_r1_network.node[53].content_store 	misses[53] 	9987
scalar tree_5_3_u00_r1_network.node[53].content_store 	decision_yes[53] 	9988
scalar tree_5_3_u00_r1_network.node[53].content_store 	decision_no[53] 	0
scalar tree_5_3_u00_r1_network.node[53].content_store 	decision_ratio[53] 	1
scalar tree_5_3_u00_r1_network.node[54].core_layer 	interests[54] 	13178
scalar tree_5_3_u00_r1_network.node[54].core_layer 	data[54] 	10158
scalar tree_5_3_u00_r1_network.node[54].content_store 	p_hit[54] 	0.22916982850205
scalar tree_5_3_u00_r1_network.node[54].content_store 	hits[54] 	3020
scalar tree_5_3_u00_r1_network.node[54].content_store 	misses[54] 	10158
scalar tree_5_3_u00_r1_network.node[54].content_store 	decision_yes[54] 	10158
scalar tree_5_3_u00_r1_network.node[54].content_store 	decision_no[54] 	0
scalar tree_5_3_u00_r1_network.node[54].content_store 	decision_ratio[54] 	1
scalar tree_5_3_u00_r1_network.node[55].core_layer 	interests[55] 	13195
scalar tree_5_3_u00_r1_network.node[55].core_layer 	data[55] 	10138
scalar tree_5_3_u00_r1_network.node[55].content_store 	p_hit[55] 	0.23152709359606
scalar tree_5_3_u00_r1_network.node[55].content_store 	hits[55] 	3055
scalar tree_5_3_u00_r1_network.node[55].content_store 	misses[55] 	10140
scalar tree_5_3_u00_r1_network.node[55].content_store 	decision_yes[55] 	10138
scalar tree_5_3_u00_r1_network.node[55].content_store 	decision_no[55] 	0
scalar tree_5_3_u00_r1_network.node[55].content_store 	decision_ratio[55] 	1
scalar tree_5_3_u00_r1_network.node[56].core_layer 	interests[56] 	13171
scalar tree_5_3_u00_r1_network.node[56].core_layer 	data[56] 	10014
scalar tree_5_3_u00_r1_network.node[56].content_store 	p_hit[56] 	0.23969326550755
scalar tree_5_3_u00_r1_network.node[56].content_store 	hits[56] 	3157
scalar tree_5_3_u00_r1_network.node[56].content_store 	misses[56] 	10014
scalar tree_5_3_u00_r1_network.node[56].content_store 	decision_yes[56] 	10014
scalar tree_5_3_u00_r1_network.node[56].content_store 	decision_no[56] 	0
scalar tree_5_3_u00_r1_network.node[56].content_store 	decision_ratio[56] 	1
scalar tree_5_3_u00_r1_network.node[57].core_layer 	interests[57] 	13145
scalar tree_5_3_u00_r1_network.node[57].core_layer 	data[57] 	10185
scalar tree_5_3_u00_r1_network.node[57].content_store 	p_hit[57] 	0.22510460251046
scalar tree_5_3_u00_r1_network.node[57].content_store 	hits[57] 	2959
scalar tree_5_3_u00_r1_network.node[57].content_store 	misses[57] 	10186
scalar tree_5_3_u00_r1_network.node[57].content_store 	decision_yes[57] 	10185
scalar tree_5_3_u00_r1_network.node[57].content_store 	decision_no[57] 	0
scalar tree_5_3_u00_r1_network.node[57].content_store 	decision_ratio[57] 	1
scalar tree_5_3_u00_r1_network.node[58].core_layer 	interests[58] 	13431
scalar tree_5_3_u00_r1_network.node[58].core_layer 	data[58] 	10287
scalar tree_5_3_u00_r1_network.node[58].content_store 	p_hit[58] 	0.23408532499442
scalar tree_5_3_u00_r1_network.node[58].content_store 	hits[58] 	3144
scalar tree_5_3_u00_r1_network.node[58].content_store 	misses[58] 	10287
scalar tree_5_3_u00_r1_network.node[58].content_store 	decision_yes[58] 	10287
scalar tree_5_3_u00_r1_network.node[58].content_store 	decision_no[58] 	0
scalar tree_5_3_u00_r1_network.node[58].content_store 	decision_ratio[58] 	1
scalar tree_5_3_u00_r1_network.node[59].core_layer 	interests[59] 	13227
scalar tree_5_3_u00_r1_network.node[59].core_layer 	data[59] 	10142
scalar tree_5_3_u00_r1_network.node[59].content_store 	p_hit[59] 	0.23323504951992
scalar tree_5_3_u00_r1_network.node[59].content_store 	hits[59] 	3085
scalar tree_5_3_u00_r1_network.node[59].content_store 	misses[59] 	10142
scalar tree_5_3_u00_r1_network.node[59].content_store 	decision_yes[59] 	10142
scalar tree_5_3_u00_r1_network.node[59].content_store 	decision_no[59] 	0
scalar tree_5_3_u00_r1_network.node[59].content_store 	decision_ratio[59] 	1
scalar tree_5_3_u00_r1_network.node[60].core_layer 	interests[60] 	13199
scalar tree_5_3_u00_r1_network.node[60].core_layer 	data[60] 	10156
scalar tree_5_3_u00_r1_network.node[60].content_store 	p_hit[60] 	0.23054776877036
scalar tree_5_3_u00_r1_network.node[60].content_store 	hits[60] 	3043
scalar tree_5_3_u00_r1_network.node[60].content_store 	misses[60] 	10156
scalar tree_5_3_u00_r1_network.node[60].content_store 	decision_yes[60] 	10156
scalar tree_5_3_u00_r1_network.node[60].content_store 	decision_no[60] 	0
scalar tree_5_3_u00_r1_network.node[60].content_store 	decision_ratio[60] 	1
scalar tree_5_3_u00_r1_network.node[61].core_layer 	interests[61] 	13013
scalar tree_5_3_u00_r1_network.node[61].core_layer 	data[61] 	10002
scalar tree_5_3_u00_r1_network.node[61].content_store 	p_hit[61] 	0.23146084684546
scalar tree_5_3_u00_r1_network.node[61].content_store 	hits[61] 	3012
scalar tree_5_3_u00_r1_network.node[61].content_store 	misses[61] 	10001
scalar tree_5_3_u00_r1_network.node[61].content_store 	decision_yes[61] 	10002
scalar tree_5_3_u00_r1_network.node[61].content_store 	decision_no[61] 	0
scalar tree_5_3_u00_r1_network.node[61].content_store 	decision_ratio[61] 	1
scalar tree_5_3_u00_r1_network.node[62].core_layer 	interests[62] 	13046
scalar tree_5_3_u00_r1_network.node[62].core_layer 	data[62] 	10079
scalar tree_5_3_u00_r1_network.node[62].content_store 	p_hit[62] 	0.22734937912004
scalar tree_5_3_u00_r1_network.node[62].content_store 	hits[62] 	2966
scalar tree_5_3_u00_r1_network.node[62].content_store 	misses[62] 	10080
scalar tree_5_3_u00_r1_network.node[62].content_store 	decision_yes[62] 	10079
scalar tree_5_3_u00_r1_network.node[62].content_store 	decision_no[62] 	0
scalar tree_5_3_u00_r1_network.node[62].content_store 	decision_ratio[62] 	1
scalar tree_5_3_u00_r1_network.node[63].core_layer 	interests[63] 	13094
scalar tree_5_3_u00_r1_network.node[63].core_layer 	data[63] 	9967
scalar tree_5_3_u00_r1_network.node[63].content_store 	p_hit[63] 	0.23873529861005
scalar tree_5_3_u00_r1_network.node[63].content_store 	hits[63] 	3126
scalar tree_5_3_u00_r1_network.node[63].content_store 	misses[63] 	9968
scalar tree_5_3_u00_r1_network.node[63].content_store 	decision_yes[63] 	9967
scalar tree_5_3_u00_r1_network.node[63].content_store 	decision_no[63] 	0
scalar tree_5_3_u00_r1_network.node[63].content_store 	decision_ratio[63] 	1
scalar tree_5_3_u00_r1_network.node[64].core_layer 	interests[64] 	13066
scalar tree_5_3_u00_r1_network.node[64].core_layer 	data[64] 	10098
scalar tree_5_3_u00_r1_network.node[64].content_store 	p_hit[64] 	0.22715444665544
scalar tree_5_3_u00_r1_network.node[64].content_store 	hits[64] 	2968
scalar tree_5_3_u00_r1_network.node[64].content_store 	misses[64] 	10098
scalar tree_5_3_u00_r1_network.node[64].content_store 	decision_yes[64] 	10098
scalar tree_5_3_u00_r1_network.node[64].content_store 	decision_no[64] 	0
scalar tree_5_3_u00_r1_network.node[64].content_store 	decision_ratio[64] 	1
scalar tree_5_3_u00_r1_network.node[65].core_layer 	interests[65] 	13034
scalar tree_5_3_u00_r1_network.node[65].core_layer 	data[65] 	9995
scalar tree_5_3_u00_r1_network.node[65].content_store 	p_hit[65] 	0.23308270676692
scalar tree_5_3_u00_r1_network.node[65].content_store 	hits[65] 	3038
scalar tree_5_3_u00_r1_network.node[65].content_store 	misses[65] 	9996
scalar tree_5_3_u00_r1_network.node[65].content_store 	decision_yes[65] 	9995
scalar tree_5_3_u00_r1_network.node[65].content_store 	decision_no[65] 	0
scalar tree_5_3_u00_r1_network.node[65].content_store 	decision_ratio[65] 	1
scalar tree_5_3_u00_r1_network.node[66].core_layer 	interests[66] 	13073
scalar tree_5_3_u00_r1_network.node[66].core_layer 	data[66] 	10061
scalar tree_5_3_u00_r1_network.node[66].content_store 	p_hit[66] 	0.23032203778781
scalar tree_5_3_u00_r1_network.node[66].content_store 	hits[66] 	3011
scalar tree_5_3_u00_r1_network.node[66].content_store 	misses[66] 	10062
scalar tree_5_3_u00_r1_network.node[66].content_store 	decision_yes[66] 	10061
scalar tree_5_3_u00_r1_network.node[66].content_store 	decision_no[66] 	0
scalar tree_5_3_u00_r1_network.node[66].content_store 	decision_ratio[66] 	1
scalar tree_5_3_u00_r1_network.node[67].core_layer 	interests[67] 	12942
scalar tree_5_3_u00_r1_network.node[67].core_layer 	data[67] 	9880
scalar tree_5_3_u00_r1_network.node[67].content_store 	p_hit[67] 	0.23659403492505
scalar tree_5_3_u00_r1_network.node[67].content_store 	hits[67] 	3062
scalar tree_5_3_u00_r1_network.node[67].content_store 	misses[67] 	9880
scalar tree_5_3_u00_r1_network.node[67].content_store 	decision_yes[67] 	9880
scalar tree_5_3_u00_r1_network.node[67].content_store 	decision_no[67] 	0
scalar tree_5_3_u00_r1_network.node[67].content_store 	decision_ratio[67] 	1
scalar tree_5_3_u00_r1_network.node[68].core_layer 	interests[68] 	12967
scalar tree_5_3_u00_r1_network.node[68].core_layer 	data[68] 	10007
scalar tree_5_3_u00_r1_network.node[68].content_store 	p_hit[68] 	0.22827176679263
scalar tree_5_3_u00_r1_network.node[68].content_store 	hits[68] 	2960
scalar tree_5_3_u00_r1_network.node[68].content_store 	misses[68] 	10007
scalar tree_5_3_u00_r1_network.node[68].content_store 	decision_yes[68] 	10007
scalar tree_5_3_u00_r1_network.node[68].content_store 	decision_no[68] 	0
scalar tree_5_3_u00_r1_network.node[68].content_store 	decision_ratio[68] 	1
scalar tree_5_3_u00_r1_network.node[69].core_layer 	interests[69] 	12751
scalar tree_5_3_u00_r1_network.node[69].core_layer 	data[69] 	9788
scalar tree_5_3_u00_r1_network.node[69].content_store 	p_hit[69] 	0.23229550623481
scalar tree_5_3_u00_r1_network.node[69].content_store 	hits[69] 	2962
scalar tree_5_3_u00_r1_network.node[69].content_store 	misses[69] 	9789
scalar tree_5_3_u00_r1_network.node[69].content_store 	decision_yes[69] 	9788
scalar tree_5_3_u00_r1_network.node[69].content_store 	decision_no[69] 	0
scalar tree_5_3_u00_r1_network.node[69].content_store 	decision_ratio[69] 	1
scalar tree_5_3_u00_r1_network.node[70].core_layer 	interests[70] 	13094
scalar tree_5_3_u00_r1_network.node[70].core_layer 	data[70] 	10036
scalar tree_5_3_u00_r1_network.node[70].content_store 	p_hit[70] 	0.23354208034214
scalar tree_5_3_u00_r1_network.node[70].content_store 	hits[70] 	3058
scalar tree_5_3_u00_r1_network.node[70].content_store 	misses[70] 	10036
scalar tree_5_3_u00_r1_network.node[70].content_store 	decision_yes[70] 	10036
scalar tree_5_3_u00_r1_network.node[70].content_store 	decision_no[70] 	0
scalar tree_5_3_u00_r1_network.node[70].content_store 	decision_ratio[70] 	1
scalar tree_5_3_u00_r1_network.node[71].core_layer 	interests[71] 	13060
scalar tree_5_3_u00_r1_network.node[71].core_layer 	data[71] 	10050
scalar tree_5_3_u00_r1_network.node[71].content_store 	p_hit[71] 	0.23047473200613
scalar tree_5_3_u00_r1_network.node[71].content_store 	hits[71] 	3010
scalar tree_5_3_u00_r1_network.node[71].content_store 	misses[71] 	10050
scalar tree_5_3_u00_r1_network.node[71].content_store 	decision_yes[71] 	10050
scalar tree_5_3_u00_r1_network.node[71].content_store 	decision_no[71] 	0
scalar tree_5_3_u00_r1_network.node[71].content_store 	decision_ratio[71] 	1
scalar tree_5_3_u00_r1_network.node[72].core_layer 	interests[72] 	12826
scalar tree_5_3_u00_r1_network.node[72].core_layer 	data[72] 	9853
scalar tree_5_3_u00_r1_network.node[72].content_store 	p_hit[72] 	0.2317947918291
scalar tree_5_3_u00_r1_network.node[72].content_store 	hits[72] 	2973
scalar tree_5_3_u00_r1_network.node[72].content_store 	misses[72] 	9853
scalar tree_5_3_u00_r1_network.node[72].content_store 	decision_yes[72] 	9853
scalar tree_5_3_u00_r1_network.node[72].content_store 	decision_no[72] 	0
scalar tree_5_3_u00_r1_network.node[72].content_store 	decision_ratio[72] 	1
scalar tree_5_3_u00_r1_network.node[73].core_layer 	interests[73] 	13107
scalar tree_5_3_u00_r1_network.node[73].core_layer 	data[73] 	10070
scalar tree_5_3_u00_r1_network.node[73].content_store 	p_hit[73] 	0.23155565728237
scalar tree_5_3_u00_r1_network.node[73].content_store 	hits[73] 	3035
scalar tree_5_3_u00_r1_network.node[73].content_store 	misses[73] 	10072
scalar tree_5_3_u00_r1_network.node[73].content_store 	decision_yes[73] 	10070
scalar tree_5_3_u00_r1_network.node[73].content_store 	decision_no[73] 	0
scalar tree_5_3_u00_r1_network.node[73].content_store 	decision_ratio[73] 	1
scalar tree_5_3_u00_r1_network.node[74].core_layer 	interests[74] 	13185
scalar tree_5_3_u00_r1_network.node[74].core_layer 	data[74] 	10253
scalar tree_5_3_u00_r1_network.node[74].content_store 	p_hit[74] 	0.22229806598407
scalar tree_5_3_u00_r1_network.node[74].content_store 	hits[74] 	2931
scalar tree_5_3_u00_r1_network.node[74].content_store 	misses[74] 	10254
scalar tree_5_3_u00_r1_network.node[74].content_store 	decision_yes[74] 	10253
scalar tree_5_3_u00_r1_network.node[74].content_store 	decision_no[74] 	0
scalar tree_5_3_u00_r1_network.node[74].content_store 	decision_ratio[74] 	1
scalar tree_5_3_u00_r1_network.node[75].core_layer 	interests[75] 	13283
scalar tree_5_3_u00_r1_network.node[75].core_layer 	data[75] 	10186
scalar tree_5_3_u00_r1_network.node[75].content_store 	p_hit[75] 	0.23315516073176
scalar tree_5_3_u00_r1_network.node[75].content_store 	hits[75] 	3097
scalar tree_5_3_u00_r1_network.node[75].content_store 	misses[75] 	10186
scalar tree_5_3_u00_r1_network.node[75].content_store 	decision_yes[75] 	10186
scalar tree_5_3_u00_r1_network.node[75].content_store 	decision_no[75] 	0
scalar tree_5_3_u00_r1_network.node[75].content_store 	decision_ratio[75] 	1
scalar tree_5_3_u00_r1_network.node[76].core_layer 	interests[76] 	13125
scalar tree_5_3_u00_r1_network.node[76].core_layer 	data[76] 	10080
scalar tree_5_3_u00_r1_network.node[76].content_store 	p_hit[76] 	0.23192380952381
scalar tree_5_3_u00_r1_network.node[76].content_store 	hits[76] 	3044
scalar tree_5_3_u00_r1_network.node[76].content_store 	misses[76] 	10081
scalar tree_5_3_u00_r1_network.node[76].content_store 	decision_yes[76] 	10080
scalar tree_5_3_u00_r1_network.node[76].content_store 	decision_no[76] 	0
scalar tree_5_3_u00_r1_network.node[76].content_store 	decision_ratio[76] 	1
scalar tree_5_3_u00_r1_network.node[77].core_layer 	interests[77] 	13134
scalar tree_5_3_u00_r1_network.node[77].core_layer 	data[77] 	10136
scalar tree_5_3_u00_r1_network.node[77].content_store 	p_hit[77] 	0.22833866301203
scalar tree_5_3_u00_r1_network.node[77].content_store 	hits[77] 	2999
scalar tree_5_3_u00_r1_network.node[77].content_store 	misses[77] 	10135
scalar tree_5_3_u00_r1_network.node[77].content_store 	decision_yes[77] 	10136
scalar tree_5_3_u00_r1_network.node[77].content_store 	decision_no[77] 	0
scalar tree_5_3_u00_r1_network.node[77].content_store 	decision_ratio[77] 	1
scalar tree_5_3_u00_r1_network.node[78].core_layer 	interests[78] 	13091
scalar tree_5_3_u00_r1_network.node[78].core_layer 	data[78] 	10142
scalar tree_5_3_u00_r1_network.node[78].content_store 	p_hit[78] 	0.22534565732182
scalar tree_5_3_u00_r1_network.node[78].content_store 	hits[78] 	2950
scalar tree_5_3_u00_r1_network.node[78].content_store 	misses[78] 	10141
scalar tree_5_3_u00_r1_network.node[78].content_store 	decision_yes[78] 	10142
scalar tree_5_3_u00_r1_network.node[78].content_store 	decision_no[78] 	0
scalar tree_5_3_u00_r1_network.node[78].content_store 	decision_ratio[78] 	1
scalar tree_5_3_u00_r1_network.node[79].core_layer 	interests[79] 	12964
scalar tree_5_3_u00_r1_network.node[79].core_layer 	data[79] 	9964
scalar tree_5_3_u00_r1_network.node[79].content_store 	p_hit[79] 	0.23141005862388
scalar tree_5_3_u00_r1_network.node[79].content_store 	hits[79] 	3000
scalar tree_5_3_u00_r1_network.node[79].content_store 	misses[79] 	9964
scalar tree_5_3_u00_r1_network.node[79].content_store 	decision_yes[79] 	9964
scalar tree_5_3_u00_r1_network.node[79].content_store 	decision_no[79] 	0
scalar tree_5_3_u00_r1_network.node[79].content_store 	decision_ratio[79] 	1
scalar tree_5_3_u00_r1_network.node[80].core_layer 	interests[80] 	13108
scalar tree_5_3_u00_r1_network.node[80].core_layer 	data[80] 	10098
scalar tree_5_3_u00_r1_network.node[80].content_store 	p_hit[80] 	0.22963075984132
scalar tree_5_3_u00_r1_network.node[80].content_store 	hits[80] 	3010
scalar tree_5_3_u00_r1_network.node[80].content_store 	misses[80] 	10098
scalar tree_5_3_u00_r1_network.node[80].content_store 	decision_yes[80] 	10098
scalar tree_5_3_u00_r1_network.node[80].content_store 	decision_no[80] 	0
scalar tree_5_3_u00_r1_network.node[80].content_store 	decision_ratio[80] 	1
scalar tree_5_3_u00_r1_network.node[81].core_layer 	interests[81] 	13194
scalar tree_5_3_u00_r1_network.node[81].core_layer 	data[81] 	10215
scalar tree_5_3_u00_r1_network.node[81].content_store 	p_hit[81] 	0.22563286342277
scalar tree_5_3_u00_r1_network.node[81].content_store 	hits[81] 	2977
scalar tree_5_3_u00_r1_network.node[81].content_store 	misses[81] 	10217
scalar tree_5_3_u00_r1_network.node[81].content_store 	decision_yes[81] 	10215
scalar tree_5_3_u00_r1_network.node[81].content_store 	decision_no[81] 	0
scalar tree_5_3_u00_r1_network.node[81].content_store 	decision_ratio[81] 	1
scalar tree_5_3_u00_r1_network.node[82].core_layer 	interests[82] 	13062
scalar tree_5_3_u00_r1_network.node[82].core_layer 	data[82] 	10053
scalar tree_5_3_u00_r1_network.node[82].content_store 	p_hit[82] 	0.23036288470372
scalar tree_5_3_u00_r1_network.node[82].content_store 	hits[82] 	3009
scalar tree_5_3_u00_r1_network.node[82].content_store 	misses[82] 	10053
scalar tree_5_3_u00_r1_network.node[82].content_store 	decision_yes[82] 	10053
scalar tree_5_3_u00_r1_network.node[82].content_store 	decision_no[82] 	0
scalar tree_5_3_u00_r1_network.node[82].content_store 	decision_ratio[82] 	1
scalar tree_5_3_u00_r1_network.node[83].core_layer 	interests[83] 	13302
scalar tree_5_3_u00_r1_network.node[83].core_layer 	data[83] 	10253
scalar tree_5_3_u00_r1_network.node[83].content_store 	p_hit[83] 	0.22913847541723
scalar tree_5_3_u00_r1_network.node[83].content_store 	hits[83] 	3048
scalar tree_5_3_u00_r1_network.node[83].content_store 	misses[83] 	10254
scalar tree_5_3_u00_r1_network.node[83].content_store 	decision_yes[83] 	10253
scalar tree_5_3_u00_r1_network.node[83].content_store 	decision_no[83] 	0
scalar tree_5_3_u00_r1_network.node[83].content_store 	decision_ratio[83] 	1
scalar tree_5_3_u00_r1_network.node[84].core_layer 	interests[84] 	13001
scalar tree_5_3_u00_r1_network.node[84].core_layer 	data[84] 	10073
scalar tree_5_3_u00_r1_network.node[84].content_store 	p_hit[84] 	0.22513652795939
scalar tree_5_3_u00_r1_network.node[84].content_store 	hits[84] 	2927
scalar tree_5_3_u00_r1_network.node[84].content_store 	misses[84] 	10074
scalar tree_5_3_u00_r1_network.node[84].content_store 	decision_yes[84] 	10073
scalar tree_5_3_u00_r1_network.node[84].content_store 	decision_no[84] 	0
scalar tree_5_3_u00_r1_network.node[84].content_store 	decision_ratio[84] 	1
scalar tree_5_3_u00_r1_network.node[85].core_layer 	interests[85] 	12894
scalar tree_5_3_u00_r1_network.node[85].core_layer 	data[85] 	9983
scalar tree_5_3_u00_r1_network.node[85].content_store 	p_hit[85] 	0.22576392120366
scalar tree_5_3_u00_r1_network.node[85].content_store 	hits[85] 	2911
scalar tree_5_3_u00_r1_network.node[85].content_store 	misses[85] 	9983
scalar tree_5_3_u00_r1_network.node[85].content_store 	decision_yes[85] 	9983
scalar tree_5_3_u00_r1_network.node[85].content_store 	decision_no[85] 	0
scalar tree_5_3_u00_r1_network.node[85].content_store 	decision_ratio[85] 	1
scalar tree_5_3_u00_r1_network.node[86].core_layer 	interests[86] 	12973
scalar tree_5_3_u00_r1_network.node[86].core_layer 	data[86] 	10037
scalar tree_5_3_u00_r1_network.node[86].content_store 	p_hit[86] 	0.22631619517459
scalar tree_5_3_u00_r1_network.node[86].content_store 	hits[86] 	2936
scalar tree_5_3_u00_r1_network.node[86].content_store 	misses[86] 	10037
scalar tree_5_3_u00_r1_network.node[86].content_store 	decision_yes[86] 	10037
scalar tree_5_3_u00_r1_network.node[86].content_store 	decision_no[86] 	0
scalar tree_5_3_u00_r1_network.node[86].content_store 	decision_ratio[86] 	1
scalar tree_5_3_u00_r1_network.node[87].core_layer 	interests[87] 	12941
scalar tree_5_3_u00_r1_network.node[87].core_layer 	data[87] 	9984
scalar tree_5_3_u00_r1_network.node[87].content_store 	p_hit[87] 	0.22849857043505
scalar tree_5_3_u00_r1_network.node[87].content_store 	hits[87] 	2957
scalar tree_5_3_u00_r1_network.node[87].content_store 	misses[87] 	9984
scalar tree_5_3_u00_r1_network.node[87].content_store 	decision_yes[87] 	9984
scalar tree_5_3_u00_r1_network.node[87].content_store 	decision_no[87] 	0
scalar tree_5_3_u00_r1_network.node[87].content_store 	decision_ratio[87] 	1
scalar tree_5_3_u00_r1_network.node[88].core_layer 	interests[88] 	13069
scalar tree_5_3_u00_r1_network.node[88].core_layer 	data[88] 	10080
scalar tree_5_3_u00_r1_network.node[88].content_store 	p_hit[88] 	0.22870915907874
scalar tree_5_3_u00_r1_network.node[88].content_store 	hits[88] 	2989
scalar tree_5_3_u00_r1_network.node[88].content_store 	misses[88] 	10080
scalar tree_5_3_u00_r1_network.node[88].content_store 	decision_yes[88] 	10080
scalar tree_5_3_u00_r1_network.node[88].content_store 	decision_no[88] 	0
scalar tree_5_3_u00_r1_network.node[88].content_store 	decision_ratio[88] 	1
scalar tree_5_3_u00_r1_network.node[89].core_layer 	interests[89] 	13172
scalar tree_5_3_u00_r1_network.node[89].core_layer 	data[89] 	10164
scalar tree_5_3_u00_r1_network.node[89].content_store 	p_hit[89] 	0.22836319465533
scalar tree_5_3_u00_r1_network.node[89].content_store 	hits[89] 	3008
scalar tree_5_3_u00_r1_network.node[89].content_store 	misses[89] 	10164
scalar tree_5_3_u00_r1_network.node[89].content_store 	decision_yes[89] 	10164
scalar tree_5_3_u00_r1_network.node[89].content_store 	decision_no[89] 	0
scalar tree_5_3_u00_r1_network.node[89].content_store 	decision_ratio[89] 	1
scalar tree_5_3_u00_r1_network.node[90].core_layer 	interests[90] 	13048
scalar tree_5_3_u00_r1_network.node[90].core_layer 	data[90] 	9963
scalar tree_5_3_u00_r1_network.node[90].content_store 	p_hit[90] 	0.23643470263642
scalar tree_5_3_u00_r1_network.node[90].content_store 	hits[90] 	3085
scalar tree_5_3_u00_r1_network.node[90].content_store 	misses[90] 	9963
scalar tree_5_3_u00_r1_network.node[90].content_store 	decision_yes[90] 	9963
scalar tree_5_3_u00_r1_network.node[90].content_store 	decision_no[90] 	0
scalar tree_5_3_u00_r1_network.node[90].content_store 	decision_ratio[90] 	1
scalar tree_5_3_u00_r1_network.node[91].core_layer 	interests[91] 	13038
scalar tree_5_3_u00_r1_network.node[91].core_layer 	data[91] 	9971
scalar tree_5_3_u00_r1_network.node[91].content_store 	p_hit[91] 	0.2352354655622
scalar tree_5_3_u00_r1_network.node[91].content_store 	hits[91] 	3067
scalar tree_5_3_u00_r1_network.node[91].content_store 	misses[91] 	9971
scalar tree_5_3_u00_r1_network.node[91].content_store 	decision_yes[91] 	9971
scalar tree_5_3_u00_r1_network.node[91].content_store 	decision_no[91] 	0
scalar tree_5_3_u00_r1_network.node[91].content_store 	decision_ratio[91] 	1
scalar tree_5_3_u00_r1_network.node[92].core_layer 	interests[92] 	12883
scalar tree_5_3_u00_r1_network.node[92].core_layer 	data[92] 	9966
scalar tree_5_3_u00_r1_network.node[92].content_store 	p_hit[92] 	0.22634479546689
scalar tree_5_3_u00_r1_network.node[92].content_store 	hits[92] 	2916
scalar tree_5_3_u00_r1_network.node[92].content_store 	misses[92] 	9967
scalar tree_5_3_u00_r1_network.node[92].content_store 	decision_yes[92] 	9966
scalar tree_5_3_u00_r1_network.node[92].content_store 	decision_no[92] 	0
scalar tree_5_3_u00_r1_network.node[92].content_store 	decision_ratio[92] 	1
scalar tree_5_3_u00_r1_network.node[93].core_layer 	interests[93] 	13128
scalar tree_5_3_u00_r1_network.node[93].core_layer 	data[93] 	10052
scalar tree_5_3_u00_r1_network.node[93].content_store 	p_hit[93] 	0.23423217550274
scalar tree_5_3_u00_r1_network.node[93].content_store 	hits[93] 	3075
scalar tree_5_3_u00_r1_network.node[93].content_store 	misses[93] 	10053
scalar tree_5_3_u00_r1_network.node[93].content_store 	decision_yes[93] 	10052
scalar tree_5_3_u00_r1_network.node[93].content_store 	decision_no[93] 	0
scalar tree_5_3_u00_r1_network.node[93].content_store 	decision_ratio[93] 	1
scalar tree_5_3_u00_r1_network.node[94].core_layer 	interests[94] 	13048
scalar tree_5_3_u00_r1_network.node[94].core_layer 	data[94] 	9885
scalar tree_5_3_u00_r1_network.node[94].content_store 	p_hit[94] 	0.24233599019007
scalar tree_5_3_u00_r1_network.node[94].content_store 	hits[94] 	3162
scalar tree_5_3_u00_r1_network.node[94].content_store 	misses[94] 	9886
scalar tree_5_3_u00_r1_network.node[94].content_store 	decision_yes[94] 	9885
scalar tree_5_3_u00_r1_network.node[94].content_store 	decision_no[94] 	0
scalar tree_5_3_u00_r1_network.node[94].content_store 	decision_ratio[94] 	1
scalar tree_5_3_u00_r1_network.node[95].core_layer 	interests[95] 	13018
scalar tree_5_3_u00_r1_network.node[95].core_layer 	data[95] 	10066
scalar tree_5_3_u00_r1_network.node[95].content_store 	p_hit[95] 	0.22683976033185
scalar tree_5_3_u00_r1_network.node[95].content_store 	hits[95] 	2953
scalar tree_5_3_u00_r1_network.node[95].content_store 	misses[95] 	10065
scalar tree_5_3_u00_r1_network.node[95].content_store 	decision_yes[95] 	10066
scalar tree_5_3_u00_r1_network.node[95].content_store 	decision_no[95] 	0
scalar tree_5_3_u00_r1_network.node[95].content_store 	decision_ratio[95] 	1
scalar tree_5_3_u00_r1_network.node[96].core_layer 	interests[96] 	13269
scalar tree_5_3_u00_r1_network.node[96].core_layer 	data[96] 	10165
scalar tree_5_3_u00_r1_network.node[96].content_store 	p_hit[96] 	0.23400406963599
scalar tree_5_3_u00_r1_network.node[96].content_store 	hits[96] 	3105
scalar tree_5_3_u00_r1_network.node[96].content_store 	misses[96] 	10164
scalar tree_5_3_u00_r1_network.node[96].content_store 	decision_yes[96] 	10165
scalar tree_5_3_u00_r1_network.node[96].content_store 	decision_no[96] 	0
scalar tree_5_3_u00_r1_network.node[96].content_store 	decision_ratio[96] 	1
scalar tree_5_3_u00_r1_network.node[97].core_layer 	interests[97] 	13023
scalar tree_5_3_u00_r1_network.node[97].core_layer 	data[97] 	10042
scalar tree_5_3_u00_r1_network.node[97].content_store 	p_hit[97] 	0.22882592336635
scalar tree_5_3_u00_r1_network.node[97].content_store 	hits[97] 	2980
scalar tree_5_3_u00_r1_network.node[97].content_store 	misses[97] 	10043
scalar tree_5_3_u00_r1_network.node[97].content_store 	decision_yes[97] 	10042
scalar tree_5_3_u00_r1_network.node[97].content_store 	decision_no[97] 	0
scalar tree_5_3_u00_r1_network.node[97].content_store 	decision_ratio[97] 	1
scalar tree_5_3_u00_r1_network.node[98].core_layer 	interests[98] 	13040
scalar tree_5_3_u00_r1_network.node[98].core_layer 	data[98] 	10056
scalar tree_5_3_u00_r1_network.node[98].content_store 	p_hit[98] 	0.22868098159509
scalar tree_5_3_u00_r1_network.node[98].content_store 	hits[98] 	2982
scalar tree_5_3_u00_r1_network.node[98].content_store 	misses[98] 	10058
scalar tree_5_3_u00_r1_network.node[98].content_store 	decision_yes[98] 	10056
scalar tree_5_3_u00_r1_network.node[98].content_store 	decision_no[98] 	0
scalar tree_5_3_u00_r1_network.node[98].content_store 	decision_ratio[98] 	1
scalar tree_5_3_u00_r1_network.node[99].core_layer 	interests[99] 	13159
scalar tree_5_3_u00_r1_network.node[99].core_layer 	data[99] 	10142
scalar tree_5_3_u00_r1_network.node[99].content_store 	p_hit[99] 	0.22927274108975
scalar tree_5_3_u00_r1_network.node[99].content_store 	hits[99] 	3017
scalar tree_5_3_u00_r1_network.node[99].content_store 	misses[99] 	10142
scalar tree_5_3_u00_r1_network.node[99].content_store 	decision_yes[99] 	10142
scalar tree_5_3_u00_r1_network.node[99].content_store 	decision_no[99] 	0
scalar tree_5_3_u00_r1_network.node[99].content_store 	decision_ratio[99] 	1
scalar tree_5_3_u00_r1_network.node[100].core_layer 	interests[100] 	13324
scalar tree_5_3_u00_r1_network.node[100].core_layer 	data[100] 	10274
scalar tree_5_3_u00_r1_network.node[100].content_store 	p_hit[100] 	0.22883518462924
scalar tree_5_3_u00_r1_network.node[100].content_store 	hits[100] 	3049
scalar tree_5_3_u00_r1_network.node[100].content_store 	misses[100] 	10275
scalar tree_5_3_u00_r1_network.node[100].content_store 	decision_yes[100] 	10274
scalar tree_5_3_u00_r1_network.node[100].content_store 	decision_no[100] 	0
scalar tree_5_3_u00_r1_network.node[100].content_store 	decision_ratio[100] 	1
scalar tree_5_3_u00_r1_network.node[101].core_layer 	interests[101] 	13022
scalar tree_5_3_u00_r1_network.node[101].core_layer 	data[101] 	10007
scalar tree_5_3_u00_r1_network.node[101].content_store 	p_hit[101] 	0.23153125479957
scalar tree_5_3_u00_r1_network.node[101].content_store 	hits[101] 	3015
scalar tree_5_3_u00_r1_network.node[101].content_store 	misses[101] 	10007
scalar tree_5_3_u00_r1_network.node[101].content_store 	decision_yes[101] 	10007
scalar tree_5_3_u00_r1_network.node[101].content_store 	decision_no[101] 	0
scalar tree_5_3_u00_r1_network.node[101].content_store 	decision_ratio[101] 	1
scalar tree_5_3_u00_r1_network.node[102].core_layer 	interests[102] 	13238
scalar tree_5_3_u00_r1_network.node[102].core_layer 	data[102] 	10213
scalar tree_5_3_u00_r1_network.node[102].content_store 	p_hit[102] 	0.22828221785768
scalar tree_5_3_u00_r1_network.node[102].content_store 	hits[102] 	3022
scalar tree_5_3_u00_r1_network.node[102].content_store 	misses[102] 	10216
scalar tree_5_3_u00_r1_network.node[102].content_store 	decision_yes[102] 	10213
scalar tree_5_3_u00_r1_network.node[102].content_store 	decision_no[102] 	0
scalar tree_5_3_u00_r1_network.node[102].content_store 	decision_ratio[102] 	1
scalar tree_5_3_u00_r1_network.node[103].core_layer 	interests[103] 	13132
scalar tree_5_3_u00_r1_network.node[103].core_layer 	data[103] 	10071
scalar tree_5_3_u00_r1_network.node[103].content_store 	p_hit[103] 	0.23309473042949
scalar tree_5_3_u00_r1_network.node[103].content_store 	hits[103] 	3061
scalar tree_5_3_u00_r1_network.node[103].content_store 	misses[103] 	10071
scalar tree_5_3_u00_r1_network.node[103].content_store 	decision_yes[103] 	10071
scalar tree_5_3_u00_r1_network.node[103].content_store 	decision_no[103] 	0
scalar tree_5_3_u00_r1_network.node[103].content_store 	decision_ratio[103] 	1
scalar tree_5_3_u00_r1_network.node[104].core_layer 	interests[104] 	13073
scalar tree_5_3_u00_r1_network.node[104].core_layer 	data[104] 	10089
scalar tree_5_3_u00_r1_network.node[104].content_store 	p_hit[104] 	0.22825671230781
scalar tree_5_3_u00_r1_network.node[104].content_store 	hits[104] 	2984
scalar tree_5_3_u00_r1_network.node[104].content_store 	misses[104] 	10089
scalar tree_5_3_u00_r1_network.node[104].content_store 	decision_yes[104] 	10089
scalar tree_5_3_u00_r1_network.node[104].content_store 	decision_no[104] 	0
scalar tree_5_3_u00_r1_network.node[104].content_store 	decision_ratio[104] 	1
scalar tree_5_3_u00_r1_network.node[105].core_layer 	interests[105] 	13074
scalar tree_5_3_u00_r1_network.node[105].core_layer 	data[105] 	9910
scalar tree_5_3_u00_r1_network.node[105].content_store 	p_hit[105] 	0.24200703686706
scalar tree_5_3_u00_r1_network.node[105].content_store 	hits[105] 	3164
scalar tree_5_3_u00_r1_network.node[105].content_store 	misses[105] 	9910
scalar tree_5_3_u00_r1_network.node[105].content_store 	decision_yes[105] 	9910
scalar tree_5_3_u00_r1_network.node[105].content_store 	decision_no[105] 	0
scalar tree_5_3_u00_r1_network.node[105].content_store 	decision_ratio[105] 	1
scalar tree_5_3_u00_r1_network.node[106].core_layer 	interests[106] 	13101
scalar tree_5_3_u00_r1_network.node[106].core_layer 	data[106] 	10026
scalar tree_5_3_u00_r1_network.node[106].content_store 	p_hit[106] 	0.23471490725899
scalar tree_5_3_u00_r1_network.node[106].content_store 	hits[106] 	3075
scalar tree_5_3_u00_r1_network.node[106].content_store 	misses[106] 	10026
scalar tree_5_3_u00_r1_network.node[106].content_store 	decision_yes[106] 	10026
scalar tree_5_3_u00_r1_network.node[106].content_store 	decision_no[106] 	0
scalar tree_5_3_u00_r1_network.node[106].content_store 	decision_ratio[106] 	1
scalar tree_5_3_u00_r1_network.node[107].core_layer 	interests[107] 	12924
scalar tree_5_3_u00_r1_network.node[107].core_layer 	data[107] 	9945
scalar tree_5_3_u00_r1_network.node[107].content_store 	p_hit[107] 	0.2304240173321
scalar tree_5_3_u00_r1_network.node[107].content_store 	hits[107] 	2978
scalar tree_5_3_u00_r1_network.node[107].content_store 	misses[107] 	9946
scalar tree_5_3_u00_r1_network.node[107].content_store 	decision_yes[107] 	9945
scalar tree_5_3_u00_r1_network.node[107].content_store 	decision_no[107] 	0
scalar tree_5_3_u00_r1_network.node[107].content_store 	decision_ratio[107] 	1
scalar tree_5_3_u00_r1_network.node[108].core_layer 	interests[108] 	12909
scalar tree_5_3_u00_r1_network.node[108].core_layer 	data[108] 	9995
scalar tree_5_3_u00_r1_network.node[108].content_store 	p_hit[108] 	0.22565651870788
scalar tree_5_3_u00_r1_network.node[108].content_store 	hits[108] 	2913
scalar tree_5_3_u00_r1_network.node[108].content_store 	misses[108] 	9996
scalar tree_5_3_u00_r1_network.node[108].content_store 	decision_yes[108] 	9995
scalar tree_5_3_u00_r1_network.node[108].content_store 	decision_no[108] 	0
scalar tree_5_3_u00_r1_network.node[108].content_store 	decision_ratio[108] 	1
scalar tree_5_3_u00_r1_network.node[109].core_layer 	interests[109] 	13073
scalar tree_5_3_u00_r1_network.node[109].core_layer 	data[109] 	10110
scalar tree_5_3_u00_r1_network.node[109].content_store 	p_hit[109] 	0.226497360973
scalar tree_5_3_u00_r1_network.node[109].content_store 	hits[109] 	2961
scalar tree_5_3_u00_r1_network.node[109].content_store 	misses[109] 	10112
scalar tree_5_3_u00_r1_network.node[109].content_store 	decision_yes[109] 	10110
scalar tree_5_3_u00_r1_network.node[109].content_store 	decision_no[109] 	0
scalar tree_5_3_u00_r1_network.node[109].content_store 	decision_ratio[109] 	1
scalar tree_5_3_u00_r1_network.node[110].core_layer 	interests[110] 	12938
scalar tree_5_3_u00_r1_network.node[110].core_layer 	data[110] 	9995
scalar tree_5_3_u00_r1_network.node[110].content_store 	p_hit[110] 	0.22739217808007
scalar tree_5_3_u00_r1_network.node[110].content_store 	hits[110] 	2942
scalar tree_5_3_u00_r1_network.node[110].content_store 	misses[110] 	9996
scalar tree_5_3_u00_r1_network.node[110].content_store 	decision_yes[110] 	9995
scalar tree_5_3_u00_r1_network.node[110].content_store 	decision_no[110] 	0
scalar tree_5_3_u00_r1_network.node[110].content_store 	decision_ratio[110] 	1
scalar tree_5_3_u00_r1_network.node[111].core_layer 	interests[111] 	13205
scalar tree_5_3_u00_r1_network.node[111].core_layer 	data[111] 	10074
scalar tree_5_3_u00_r1_network.node[111].content_store 	p_hit[111] 	0.23703142748959
scalar tree_5_3_u00_r1_network.node[111].content_store 	hits[111] 	3130
scalar tree_5_3_u00_r1_network.node[111].content_store 	misses[111] 	10075
scalar tree_5_3_u00_r1_network.node[111].content_store 	decision_yes[111] 	10074
scalar tree_5_3_u00_r1_network.node[111].content_store 	decision_no[111] 	0
scalar tree_5_3_u00_r1_network.node[111].content_store 	decision_ratio[111] 	1
scalar tree_5_3_u00_r1_network.node[112].core_layer 	interests[112] 	12977
scalar tree_5_3_u00_r1_network.node[112].core_layer 	data[112] 	10011
scalar tree_5_3_u00_r1_network.node[112].content_store 	p_hit[112] 	0.22848115897357
scalar tree_5_3_u00_r1_network.node[112].content_store 	hits[112] 	2965
scalar tree_5_3_u00_r1_network.node[112].content_store 	misses[112] 	10012
scalar tree_5_3_u00_r1_network.node[112].content_store 	decision_yes[112] 	10011
scalar tree_5_3_u00_r1_network.node[112].content_store 	decision_no[112] 	0
scalar tree_5_3_u00_r1_network.node[112].content_store 	decision_ratio[112] 	1
scalar tree_5_3_u00_r1_network.node[113].core_layer 	interests[113] 	12986
scalar tree_5_3_u00_r1_network.node[113].core_layer 	data[113] 	10003
scalar tree_5_3_u00_r1_network.node[113].content_store 	p_hit[113] 	0.22963191128908
scalar tree_5_3_u00_r1_network.node[113].content_store 	hits[113] 	2982
scalar tree_5_3_u00_r1_network.node[113].content_store 	misses[113] 	10004
scalar tree_5_3_u00_r1_network.node[113].content_store 	decision_yes[113] 	10003
scalar tree_5_3_u00_r1_network.node[113].content_store 	decision_no[113] 	0
scalar tree_5_3_u00_r1_network.node[113].content_store 	decision_ratio[113] 	1
scalar tree_5_3_u00_r1_network.node[114].core_layer 	interests[114] 	13278
scalar tree_5_3_u00_r1_network.node[114].core_layer 	data[114] 	10276
scalar tree_5_3_u00_r1_network.node[114].content_store 	p_hit[114] 	0.22608826630517
scalar tree_5_3_u00_r1_network.node[114].content_store 	hits[114] 	3002
scalar tree_5_3_u00_r1_network.node[114].content_store 	misses[114] 	10276
scalar tree_5_3_u00_r1_network.node[114].content_store 	decision_yes[114] 	10276
scalar tree_5_3_u00_r1_network.node[114].content_store 	decision_no[114] 	0
scalar tree_5_3_u00_r1_network.node[114].content_store 	decision_ratio[114] 	1
scalar tree_5_3_u00_r1_network.node[115].core_layer 	interests[115] 	13008
scalar tree_5_3_u00_r1_network.node[115].core_layer 	data[115] 	10011
scalar tree_5_3_u00_r1_network.node[115].content_store 	p_hit[115] 	0.23039667896679
scalar tree_5_3_u00_r1_network.node[115].content_store 	hits[115] 	2997
scalar tree_5_3_u00_r1_network.node[115].content_store 	misses[115] 	10011
scalar tree_5_3_u00_r1_network.node[115].content_store 	decision_yes[115] 	10011
scalar tree_5_3_u00_r1_network.node[115].content_store 	decision_no[115] 	0
scalar tree_5_3_u00_r1_network.node[115].content_store 	decision_ratio[115] 	1
scalar tree_5_3_u00_r1_network.node[116].core_layer 	interests[116] 	13110
scalar tree_5_3_u00_r1_network.node[116].core_layer 	data[116] 	9982
scalar tree_5_3_u00_r1_network.node[116].content_store 	p_hit[116] 	0.23844393592677
scalar tree_5_3_u00_r1_network.node[116].content_store 	hits[116] 	3126
scalar tree_5_3_u00_r1_network.node[116].content_store 	misses[116] 	9984
scalar tree_5_3_u00_r1_network.node[116].content_store 	decision_yes[116] 	9982
scalar tree_5_3_u00_r1_network.node[116].content_store 	decision_no[116] 	0
scalar tree_5_3_u00_r1_network.node[116].content_store 	decision_ratio[116] 	1
scalar tree_5_3_u00_r1_network.node[117].core_layer 	interests[117] 	12990
scalar tree_5_3_u00_r1_network.node[117].core_layer 	data[117] 	9879
scalar tree_5_3_u00_r1_network.node[117].content_store 	p_hit[117] 	0.23941493456505
scalar tree_5_3_u00_r1_network.node[117].content_store 	hits[117] 	3110
scalar tree_5_3_u00_r1_network.node[117].content_store 	misses[117] 	9880
scalar tree_5_3_u00_r1_network.node[117].content_store 	decision_yes[117] 	9879
scalar tree_5_3_u00_r1_network.node[117].content_store 	decision_no[117] 	0
scalar tree_5_3_u00_r1_network.node[117].content_store 	decision_ratio[117] 	1
scalar tree_5_3_u00_r1_network.node[118].core_layer 	interests[118] 	12957
scalar tree_5_3_u00_r1_network.node[118].core_layer 	data[118] 	9980
scalar tree_5_3_u00_r1_network.node[118].content_store 	p_hit[118] 	0.22975997530293
scalar tree_5_3_u00_r1_network.node[118].content_store 	hits[118] 	2977
scalar tree_5_3_u00_r1_network.node[118].content_store 	misses[118] 	9980
scalar tree_5_3_u00_r1_network.node[118].content_store 	decision_yes[118] 	9980
scalar tree_5_3_u00_r1_network.node[118].content_store 	decision_no[118] 	0
scalar tree_5_3_u00_r1_network.node[118].content_store 	decision_ratio[118] 	1
scalar tree_5_3_u00_r1_network.node[119].core_layer 	interests[119] 	13060
scalar tree_5_3_u00_r1_network.node[119].core_layer 	data[119] 	10039
scalar tree_5_3_u00_r1_network.node[119].content_store 	p_hit[119] 	0.23131699846861
scalar tree_5_3_u00_r1_network.node[119].content_store 	hits[119] 	3021
scalar tree_5_3_u00_r1_network.node[119].content_store 	misses[119] 	10039
scalar tree_5_3_u00_r1_network.node[119].content_store 	decision_yes[119] 	10039
scalar tree_5_3_u00_r1_network.node[119].content_store 	decision_no[119] 	0
scalar tree_5_3_u00_r1_network.node[119].content_store 	decision_ratio[119] 	1
scalar tree_5_3_u00_r1_network.node[120].core_layer 	interests[120] 	12947
scalar tree_5_3_u00_r1_network.node[120].core_layer 	data[120] 	10030
scalar tree_5_3_u00_r1_network.node[120].content_store 	p_hit[120] 	0.22522592106279
scalar tree_5_3_u00_r1_network.node[120].content_store 	hits[120] 	2916
scalar tree_5_3_u00_r1_network.node[120].content_store 	misses[120] 	10031
scalar tree_5_3_u00_r1_network.node[120].content_store 	decision_yes[120] 	10030
scalar tree_5_3_u00_r1_network.node[120].content_store 	decision_no[120] 	0
scalar tree_5_3_u00_r1_network.node[120].content_store 	decision_ratio[120] 	1
scalar tree_5_3_u00_r1_network.client[40] 	hdistance[40] 	3.8178957216977
scalar tree_5_3_u00_r1_network.client[40] 	downloads[40] 	11757
scalar tree_5_3_u00_r1_network.client[40] 	avg_time[40] 	0.006349576045
scalar tree_5_3_u00_r1_network.client[41] 	hdistance[41] 	3.7875647668394
scalar tree_5_3_u00_r1_network.client[41] 	downloads[41] 	11966
scalar tree_5_3_u00_r1_network.client[41] 	avg_time[41] 	0.006298801556
scalar tree_5_3_u00_r1_network.client[42] 	hdistance[42] 	3.7948972829689
scalar tree_5_3_u00_r1_network.client[42] 	downloads[42] 	12072
scalar tree_5_3_u00_r1_network.client[42] 	avg_time[42] 	0.006296603154
scalar tree_5_3_u00_r1_network.client[43] 	hdistance[43] 	3.8030100334448
scalar tree_5_3_u00_r1_network.client[43] 	downloads[43] 	11960
scalar tree_5_3_u00_r1_network.client[43] 	avg_time[43] 	0.006316252483
scalar tree_5_3_u00_r1_network.client[44] 	hdistance[44] 	3.7831506734711
scalar tree_5_3_u00_r1_network.client[44] 	downloads[44] 	11953
scalar tree_5_3_u00_r1_network.client[44] 	avg_time[44] 	0.00629153696
scalar tree_5_3_u00_r1_network.client[45] 	hdistance[45] 	3.8197532936142
scalar tree_5_3_u00_r1_network.client[45] 	downloads[45] 	11917
scalar tree_5_3_u00_r1_network.client[45] 	avg_time[45] 	0.006341330251
scalar tree_5_3_u00_r1_network.client[46] 	hdistance[46] 	3.8108966324058
scalar tree_5_3_u00_r1_network.client[46] 	downloads[46] 	11967
scalar tree_5_3_u00_r1_network.client[46] 	avg_time[46] 	0.006325910908
scalar tree_5_3_u00_r1_network.client[47] 	hdistance[47] 	3.7642432862043
scalar tree_5_3_u00_r1_network.client[47] 	downloads[47] 	11953
scalar tree_5_3_u00_r1_network.client[47] 	avg_time[47] 	0.006269334864
scalar tree_5_3_u00_r1_network.client[48] 	hdistance[48] 	3.8017791205102
scalar tree_5_3_u00_r1_network.client[48] 	downloads[48] 	11916
scalar tree_5_3_u00_r1_network.client[48] 	avg_time[48] 	0.00632040655
scalar tree_5_3_u00_r1_network.client[49] 	hdistance[49] 	3.8014798621038
scalar tree_5_3_u00_r1_network.client[49] 	downloads[49] 	11893
scalar tree_5_3_u00_r1_network.client[49] 	avg_time[49] 	0.006326644603
scalar tree_5_3_u00_r1_network.client[50] 	hdistance[50] 	3.7956222744046
scalar tree_5_3_u00_r1_network.client[50] 	downloads[50] 	11924
scalar tree_5_3_u00_r1_network.client[50] 	avg_time[50] 	0.006307475689
scalar tree_5_3_u00_r1_network.client[51] 	hdistance[51] 	3.7883420124307
scalar tree_5_3_u00_r1_network.client[51] 	downloads[51] 	11906
scalar tree_5_3_u00_r1_network.client[51] 	avg_time[51] 	0.006290355817
scalar tree_5_3_u00_r1_network.client[52] 	hdistance[52] 	3.7700295483326
scalar tree_5_3_u00_r1_network.client[52] 	downloads[52] 	11845
scalar tree_5_3_u00_r1_network.client[52] 	avg_time[52] 	0.006267261594
scalar tree_5_3_u00_r1_network.client[53] 	hdistance[53] 	3.7645689583507
scalar tree_5_3_u00_r1_network.client[53] 	downloads[53] 	12029
scalar tree_5_3_u00_r1_network.client[53] 	avg_time[53] 	0.006256044859
scalar tree_5_3_u00_r1_network.client[54] 	hdistance[54] 	3.804765438206
scalar tree_5_3_u00_r1_network.client[54] 	downloads[54] 	12129
scalar tree_5_3_u00_r1_network.client[54] 	avg_time[54] 	0.006326935874
scalar tree_5_3_u00_r1_network.client[55] 	hdistance[55] 	3.7925834363412
scalar tree_5_3_u00_r1_network.client[55] 	downloads[55] 	12135
scalar tree_5_3_u00_r1_network.client[55] 	avg_time[55] 	0.006301787131
scalar tree_5_3_u00_r1_network.client[56] 	hdistance[56] 	3.762176465724
scalar tree_5_3_u00_r1_network.client[56] 	downloads[56] 	12093
scalar tree_5_3_u00_r1_network.client[56] 	avg_time[56] 	0.006258183789
scalar tree_5_3_u00_r1_network.client[57] 	hdistance[57] 	3.8224314502808
scalar tree_5_3_u00_r1_network.client[57] 	downloads[57] 	12108
scalar tree_5_3_u00_r1_network.client[57] 	avg_time[57] 	0.006354529872
scalar tree_5_3_u00_r1_network.client[58] 	hdistance[58] 	3.7986828197414
scalar tree_5_3_u00_r1_network.client[58] 	downloads[58] 	12299
scalar tree_5_3_u00_r1_network.client[58] 	avg_time[58] 	0.006311312646
scalar tree_5_3_u00_r1_network.client[59] 	hdistance[59] 	3.7757545931759
scalar tree_5_3_u00_r1_network.client[59] 	downloads[59] 	12192
scalar tree_5_3_u00_r1_network.client[59] 	avg_time[59] 	0.006277824826
scalar tree_5_3_u00_r1_network.client[60] 	hdistance[60] 	3.79340134935
scalar tree_5_3_u00_r1_network.client[60] 	downloads[60] 	12154
scalar tree_5_3_u00_r1_network.client[60] 	avg_time[60] 	0.006302409183
scalar tree_5_3_u00_r1_network.client[61] 	hdistance[61] 	3.8066951925497
scalar tree_5_3_u00_r1_network.client[61] 	downloads[61] 	11919
scalar tree_5_3_u00_r1_network.client[61] 	avg_time[61] 	0.006333873595
scalar tree_5_3_u00_r1_network.client[62] 	hdistance[62] 	3.809948341943
scalar tree_5_3_u00_r1_network.client[62] 	downloads[62] 	12002
scalar tree_5_3_u00_r1_network.client[62] 	avg_time[62] 	0.00633609476
scalar tree_5_3_u00_r1_network.client[63] 	hdistance[63] 	3.7597802563676
scalar tree_5_3_u00_r1_network.client[63] 	downloads[63] 	12014
scalar tree_5_3_u00_r1_network.client[63] 	avg_time[63] 	0.006249960409
scalar tree_5_3_u00_r1_network.client[64] 	hdistance[64] 	3.8085495675316
scalar tree_5_3_u00_r1_network.client[64] 	downloads[64] 	12024
scalar tree_5_3_u00_r1_network.client[64] 	avg_time[64] 	0.006333330311
scalar tree_5_3_u00_r1_network.client[65] 	hdistance[65] 	3.7927573806139
scalar tree_5_3_u00_r1_network.client[65] 	downloads[65] 	11957
scalar tree_5_3_u00_r1_network.client[65] 	avg_time[65] 	0.006304239643
scalar tree_5_3_u00_r1_network.client[66] 	hdistance[66] 	3.797103861518
scalar tree_5_3_u00_r1_network.client[66] 	downloads[66] 	12016
scalar tree_5_3_u00_r1_network.client[66] 	avg_time[66] 	0.006317011953
scalar tree_5_3_u00_r1_network.client[67] 	hdistance[67] 	3.774025098964
scalar tree_5_3_u00_r1_network.client[67] 	downloads[67] 	11873
scalar tree_5_3_u00_r1_network.client[67] 	avg_time[67] 	0.00626956208
scalar tree_5_3_u00_r1_network.client[68] 	hdistance[68] 	3.8207816169071
scalar tree_5_3_u00_r1_network.client[68] 	downloads[68] 	11924
scalar tree_5_3_u00_r1_network.client[68] 	avg_time[68] 	0.006345506958
scalar tree_5_3_u00_r1_network.client[69] 	hdistance[69] 	3.7896531151453
scalar tree_5_3_u00_r1_network.client[69] 	downloads[69] 	11733
scalar tree_5_3_u00_r1_network.client[69] 	avg_time[69] 	0.006288841137
scalar tree_5_3_u00_r1_network.client[70] 	hdistance[70] 	3.7891280857784
scalar tree_5_3_u00_r1_network.client[70] 	downloads[70] 	12031
scalar tree_5_3_u00_r1_network.client[70] 	avg_time[70] 	0.006301218848
scalar tree_5_3_u00_r1_network.client[71] 	hdistance[71] 	3.7916701305179
scalar tree_5_3_u00_r1_network.client[71] 	downloads[71] 	12029
scalar tree_5_3_u00_r1_network.client[71] 	avg_time[71] 	0.006307088191
scalar tree_5_3_u00_r1_network.client[72] 	hdistance[72] 	3.7868755292125
scalar tree_5_3_u00_r1_network.client[72] 	downloads[72] 	11810
scalar tree_5_3_u00_r1_network.client[72] 	avg_time[72] 	0.006283945668
scalar tree_5_3_u00_r1_network.client[73] 	hdistance[73] 	3.8066500415628
scalar tree_5_3_u00_r1_network.client[73] 	downloads[73] 	12030
scalar tree_5_3_u00_r1_network.client[73] 	avg_time[73] 	0.006323010382
scalar tree_5_3_u00_r1_network.client[74] 	hdistance[74] 	3.8299588477366
scalar tree_5_3_u00_r1_network.client[74] 	downloads[74] 	12150
scalar tree_5_3_u00_r1_network.client[74] 	avg_time[74] 	0.006368183092
scalar tree_5_3_u00_r1_network.client[75] 	hdistance[75] 	3.8010333798081
scalar tree_5_3_u00_r1_network.client[75] 	downloads[75] 	12193
scalar tree_5_3_u00_r1_network.client[75] 	avg_time[75] 	0.006313127442
scalar tree_5_3_u00_r1_network.client[76] 	hdistance[76] 	3.804535637149
scalar tree_5_3_u00_r1_network.client[76] 	downloads[76] 	12038
scalar tree_5_3_u00_r1_network.client[76] 	avg_time[76] 	0.006319351252
scalar tree_5_3_u00_r1_network.client[77] 	hdistance[77] 	3.815337372396
scalar tree_5_3_u00_r1_network.client[77] 	downloads[77] 	12049
scalar tree_5_3_u00_r1_network.client[77] 	avg_time[77] 	0.006342598016
scalar tree_5_3_u00_r1_network.client[78] 	hdistance[78] 	3.822789030591
scalar tree_5_3_u00_r1_network.client[78] 	downloads[78] 	11997
scalar tree_5_3_u00_r1_network.client[78] 	avg_time[78] 	0.006362040335
scalar tree_5_3_u00_r1_network.client[79] 	hdistance[79] 	3.8029693004529
scalar tree_5_3_u00_r1_network.client[79] 	downloads[79] 	11922
scalar tree_5_3_u00_r1_network.client[79] 	avg_time[79] 	0.006317896705
scalar tree_5_3_u00_r1_network.client[80] 	hdistance[80] 	3.7898694430673
scalar tree_5_3_u00_r1_network.client[80] 	downloads[80] 	12102
scalar tree_5_3_u00_r1_network.client[80] 	avg_time[80] 	0.006292467751
scalar tree_5_3_u00_r1_network.client[81] 	hdistance[81] 	3.8244079544517
scalar tree_5_3_u00_r1_network.client[81] 	downloads[81] 	12119
scalar tree_5_3_u00_r1_network.client[81] 	avg_time[81] 	0.00635410465
scalar tree_5_3_u00_r1_network.client[82] 	hdistance[82] 	3.8135763250293
scalar tree_5_3_u00_r1_network.client[82] 	downloads[82] 	11962
scalar tree_5_3_u00_r1_network.client[82] 	avg_time[82] 	0.006334315994
scalar tree_5_3_u00_r1_network.client[83] 	hdistance[83] 	3.812285012285
scalar tree_5_3_u00_r1_network.client[83] 	downloads[83] 	12210
scalar tree_5_3_u00_r1_network.client[83] 	avg_time[83] 	0.00633627865
scalar tree_5_3_u00_r1_network.client[84] 	hdistance[84] 	3.8289418653283
scalar tree_5_3_u00_r1_network.client[84] 	downloads[84] 	11955
scalar tree_5_3_u00_r1_network.client[84] 	avg_time[84] 	0.006358436146
scalar tree_5_3_u00_r1_network.client[85] 	hdistance[85] 	3.8288828798378
scalar tree_5_3_u00_r1_network.client[85] 	downloads[85] 	11834
scalar tree_5_3_u00_r1_network.client[85] 	avg_time[85] 	0.006364855988
scalar tree_5_3_u00_r1_network.client[86] 	hdistance[86] 	3.8041829847513
scalar tree_5_3_u00_r1_network.client[86] 	downloads[86] 	12001
scalar tree_5_3_u00_r1_network.client[86] 	avg_time[86] 	0.006320305468
scalar tree_5_3_u00_r1_network.client[87] 	hdistance[87] 	3.8337966472917
scalar tree_5_3_u00_r1_network.client[87] 	downloads[87] 	11871
scalar tree_5_3_u00_r1_network.client[87] 	avg_time[87] 	0.006368199169
scalar tree_5_3_u00_r1_network.client[88] 	hdistance[88] 	3.831384666778
scalar tree_5_3_u00_r1_network.client[88] 	downloads[88] 	11974
scalar tree_5_3_u00_r1_network.client[88] 	avg_time[88] 	0.006361085054
scalar tree_5_3_u00_r1_network.client[89] 	hdistance[89] 	3.8132594858229
scalar tree_5_3_u00_r1_network.client[89] 	downloads[89] 	12097
scalar tree_5_3_u00_r1_network.client[89] 	avg_time[89] 	0.006336444039
scalar tree_5_3_u00_r1_network.client[90] 	hdistance[90] 	3.7680627398632
scalar tree_5_3_u00_r1_network.client[90] 	downloads[90] 	11986
scalar tree_5_3_u00_r1_network.client[90] 	avg_time[90] 	0.006264627985
scalar tree_5_3_u00_r1_network.client[91] 	hdistance[91] 	3.7996649916248
scalar tree_5_3_u00_r1_network.client[91] 	downloads[91] 	11940
scalar tree_5_3_u00_r1_network.client[91] 	avg_time[91] 	0.006316915467
scalar tree_5_3_u00_r1_network.client[92] 	hdistance[92] 	3.8082249619997
scalar tree_5_3_u00_r1_network.client[92] 	downloads[92] 	11842
scalar tree_5_3_u00_r1_network.client[92] 	avg_time[92] 	0.006328207202
scalar tree_5_3_u00_r1_network.client[93] 	hdistance[93] 	3.7777777777778
scalar tree_5_3_u00_r1_network.client[93] 	downloads[93] 	12042
scalar tree_5_3_u00_r1_network.client[93] 	avg_time[93] 	0.006280369516
scalar tree_5_3_u00_r1_network.client[94] 	hdistance[94] 	3.7381231180997
scalar tree_5_3_u00_r1_network.client[94] 	downloads[94] 	11956
scalar tree_5_3_u00_r1_network.client[94] 	avg_time[94] 	0.006212816814
scalar tree_5_3_u00_r1_network.client[95] 	hdistance[95] 	3.7988687406422
scalar tree_5_3_u00_r1_network.client[95] 	downloads[95] 	12022
scalar tree_5_3_u00_r1_network.client[95] 	avg_time[95] 	0.006305540134
scalar tree_5_3_u00_r1_network.client[96] 	hdistance[96] 	3.7822382434868
scalar tree_5_3_u00_r1_network.client[96] 	downloads[96] 	12206
scalar tree_5_3_u00_r1_network.client[96] 	avg_time[96] 	0.006286444075
scalar tree_5_3_u00_r1_network.client[97] 	hdistance[97] 	3.8184401905876
scalar tree_5_3_u00_r1_network.client[97] 	downloads[97] 	11963
scalar tree_5_3_u00_r1_network.client[97] 	avg_time[97] 	0.006345081662
scalar tree_5_3_u00_r1_network.client[98] 	hdistance[98] 	3.8141036391078
scalar tree_5_3_u00_r1_network.client[98] 	downloads[98] 	11926
scalar tree_5_3_u00_r1_network.client[98] 	avg_time[98] 	0.006342069539
scalar tree_5_3_u00_r1_network.client[99] 	hdistance[99] 	3.7989439815197
scalar tree_5_3_u00_r1_network.client[99] 	downloads[99] 	12121
scalar tree_5_3_u00_r1_network.client[99] 	avg_time[99] 	0.006311687442
scalar tree_5_3_u00_r1_network.client[100] 	hdistance[100] 	3.7945963541667
scalar tree_5_3_u00_r1_network.client[100] 	downloads[100] 	12288
scalar tree_5_3_u00_r1_network.client[100] 	avg_time[100] 	0.006306535694
scalar tree_5_3_u00_r1_network.client[101] 	hdistance[101] 	3.8103795767551
scalar tree_5_3_u00_r1_network.client[101] 	downloads[101] 	11908
scalar tree_5_3_u00_r1_network.client[101] 	avg_time[101] 	0.006332882474
scalar tree_5_3_u00_r1_network.client[102] 	hdistance[102] 	3.817831048354
scalar tree_5_3_u00_r1_network.client[102] 	downloads[102] 	12181
scalar tree_5_3_u00_r1_network.client[102] 	avg_time[102] 	0.006342511542
scalar tree_5_3_u00_r1_network.client[103] 	hdistance[103] 	3.8017133826832
scalar tree_5_3_u00_r1_network.client[103] 	downloads[103] 	12023
scalar tree_5_3_u00_r1_network.client[103] 	avg_time[103] 	0.006319489879
scalar tree_5_3_u00_r1_network.client[104] 	hdistance[104] 	3.8017291545432
scalar tree_5_3_u00_r1_network.client[104] 	downloads[104] 	12029
scalar tree_5_3_u00_r1_network.client[104] 	avg_time[104] 	0.006314237592
scalar tree_5_3_u00_r1_network.client[105] 	hdistance[105] 	3.7545925183701
scalar tree_5_3_u00_r1_network.client[105] 	downloads[105] 	11976
scalar tree_5_3_u00_r1_network.client[105] 	avg_time[105] 	0.006240662441
scalar tree_5_3_u00_r1_network.client[106] 	hdistance[106] 	3.7837164909951
scalar tree_5_3_u00_r1_network.client[106] 	downloads[106] 	12049
scalar tree_5_3_u00_r1_network.client[106] 	avg_time[106] 	0.006288390567
scalar tree_5_3_u00_r1_network.client[107] 	hdistance[107] 	3.806864064603
scalar tree_5_3_u00_r1_network.client[107] 	downloads[107] 	11888
scalar tree_5_3_u00_r1_network.client[107] 	avg_time[107] 	0.006326744698
scalar tree_5_3_u00_r1_network.client[108] 	hdistance[108] 	3.8416456759026
scalar tree_5_3_u00_r1_network.client[108] 	downloads[108] 	11910
scalar tree_5_3_u00_r1_network.client[108] 	avg_time[108] 	0.006369818808
scalar tree_5_3_u00_r1_network.client[109] 	hdistance[109] 	3.7987567343556
scalar tree_5_3_u00_r1_network.client[109] 	downloads[109] 	12065
scalar tree_5_3_u00_r1_network.client[109] 	avg_time[109] 	0.00630940393
scalar tree_5_3_u00_r1_network.client[110] 	hdistance[110] 	3.8325872117578
scalar tree_5_3_u00_r1_network.client[110] 	downloads[110] 	11839
scalar tree_5_3_u00_r1_network.client[110] 	avg_time[110] 	0.006377224858
scalar tree_5_3_u00_r1_network.client[111] 	hdistance[111] 	3.7538689496213
scalar tree_5_3_u00_r1_network.client[111] 	downloads[111] 	12148
scalar tree_5_3_u00_r1_network.client[111] 	avg_time[111] 	0.006241804025
scalar tree_5_3_u00_r1_network.client[112] 	hdistance[112] 	3.8137716495712
scalar tree_5_3_u00_r1_network.client[112] 	downloads[112] 	11894
scalar tree_5_3_u00_r1_network.client[112] 	avg_time[112] 	0.006338787039
scalar tree_5_3_u00_r1_network.client[113] 	hdistance[113] 	3.7973210548347
scalar tree_5_3_u00_r1_network.client[113] 	downloads[113] 	11945
scalar tree_5_3_u00_r1_network.client[113] 	avg_time[113] 	0.006313006633
scalar tree_5_3_u00_r1_network.client[114] 	hdistance[114] 	3.8273722031684
scalar tree_5_3_u00_r1_network.client[114] 	downloads[114] 	12246
scalar tree_5_3_u00_r1_network.client[114] 	avg_time[114] 	0.006357011468
scalar tree_5_3_u00_r1_network.client[115] 	hdistance[115] 	3.8003507014028
scalar tree_5_3_u00_r1_network.client[115] 	downloads[115] 	11976
scalar tree_5_3_u00_r1_network.client[115] 	avg_time[115] 	0.006306783751
scalar tree_5_3_u00_r1_network.client[116] 	hdistance[116] 	3.7714309539693
scalar tree_5_3_u00_r1_network.client[116] 	downloads[116] 	11992
scalar tree_5_3_u00_r1_network.client[116] 	avg_time[116] 	0.006265596861
scalar tree_5_3_u00_r1_network.client[117] 	hdistance[117] 	3.7687531465011
scalar tree_5_3_u00_r1_network.client[117] 	downloads[117] 	11918
scalar tree_5_3_u00_r1_network.client[117] 	avg_time[117] 	0.006261282465
scalar tree_5_3_u00_r1_network.client[118] 	hdistance[118] 	3.7996303452911
scalar tree_5_3_u00_r1_network.client[118] 	downloads[118] 	11903
scalar tree_5_3_u00_r1_network.client[118] 	avg_time[118] 	0.006308985858
scalar tree_5_3_u00_r1_network.client[119] 	hdistance[119] 	3.8081871345029
scalar tree_5_3_u00_r1_network.client[119] 	downloads[119] 	11970
scalar tree_5_3_u00_r1_network.client[119] 	avg_time[119] 	0.006327687018
scalar tree_5_3_u00_r1_network.client[120] 	hdistance[120] 	3.8110011739058
scalar tree_5_3_u00_r1_network.client[120] 	downloads[120] 	11926
scalar tree_5_3_u00_r1_network.client[120] 	avg_time[120] 	0.006339879639
