version 2
run General-18-20160902-11:42:41-7280
attr a 0.9
attr cd wfc0.01
attr configname General
attr cr lru
attr datetime 20160902-11:42:41
attr experiment General
attr fsize 1
attr inifile hw5115/scenario_Y/omnetp.ini
attr iterationvars "$name=tree_4_3, $un=00, $rep=19, $cd=wfc0.01, $cr=lru, $fsize=1, $a=0.9, $sl=nrr, $ttl=1000, $variance=0.05"
attr iterationvars2 "$name=tree_4_3, $un=00, $rep=19, $cd=wfc0.01, $cr=lru, $fsize=1, $a=0.9, $sl=nrr, $ttl=1000, $variance=0.05, $repetition=0"
attr measurement "$name=tree_4_3, $un=00, $rep=19, $cd=wfc0.01, $cr=lru, $fsize=1, $a=0.9, $sl=nrr, $ttl=1000, $variance=0.05"
attr name tree_4_3
attr network networks.${name}_u${un}_r${rep}_network
attr processid 7280
attr rep 19
attr repetition 0
attr replication #0
attr resultdir results
attr runnumber 18
attr seedset 19
attr sl nrr
attr ttl 1000
attr un 00
attr variance 0.05

scalar . 	a 	0.9
scalar . 	fsize 	1
scalar . 	rep 	19
scalar . 	ttl 	1000
scalar . 	un 	00
scalar . 	variance 	0.05
scalar tree_4_3_u00_r19_network.content_distribution 	repo-0 	0
scalar tree_4_3_u00_r19_network.content_distribution 	client-0 	13
scalar tree_4_3_u00_r19_network.content_distribution 	client-1 	14
scalar tree_4_3_u00_r19_network.content_distribution 	client-2 	15
scalar tree_4_3_u00_r19_network.content_distribution 	client-3 	16
scalar tree_4_3_u00_r19_network.content_distribution 	client-4 	17
scalar tree_4_3_u00_r19_network.content_distribution 	client-5 	18
scalar tree_4_3_u00_r19_network.content_distribution 	client-6 	19
scalar tree_4_3_u00_r19_network.content_distribution 	client-7 	20
scalar tree_4_3_u00_r19_network.content_distribution 	client-8 	21
scalar tree_4_3_u00_r19_network.content_distribution 	client-9 	22
scalar tree_4_3_u00_r19_network.content_distribution 	client-10 	23
scalar tree_4_3_u00_r19_network.content_distribution 	client-11 	24
scalar tree_4_3_u00_r19_network.content_distribution 	client-12 	25
scalar tree_4_3_u00_r19_network.content_distribution 	client-13 	26
scalar tree_4_3_u00_r19_network.content_distribution 	client-14 	27
scalar tree_4_3_u00_r19_network.content_distribution 	client-15 	28
scalar tree_4_3_u00_r19_network.content_distribution 	client-16 	29
scalar tree_4_3_u00_r19_network.content_distribution 	client-17 	30
scalar tree_4_3_u00_r19_network.content_distribution 	client-18 	31
scalar tree_4_3_u00_r19_network.content_distribution 	client-19 	32
scalar tree_4_3_u00_r19_network.content_distribution 	client-20 	33
scalar tree_4_3_u00_r19_network.content_distribution 	client-21 	34
scalar tree_4_3_u00_r19_network.content_distribution 	client-22 	35
scalar tree_4_3_u00_r19_network.content_distribution 	client-23 	36
scalar tree_4_3_u00_r19_network.content_distribution 	client-24 	37
scalar tree_4_3_u00_r19_network.content_distribution 	client-25 	38
scalar tree_4_3_u00_r19_network.content_distribution 	client-26 	39
scalar tree_4_3_u00_r19_network.content_distribution 	repo-0_card 	100000
scalar tree_4_3_u00_r19_network.content_distribution 	repo-0_price 	0
scalar tree_4_3_u00_r19_network.statistics 	stabilization_time 	1034.9
scalar tree_4_3_u00_r19_network.statistics 	p_hit 	0.2135810565943
scalar tree_4_3_u00_r19_network.statistics 	interests 	25393.9
scalar tree_4_3_u00_r19_network.statistics 	data 	17264.9
scalar tree_4_3_u00_r19_network.statistics 	hdistance 	2.7404440469897
scalar tree_4_3_u00_r19_network.statistics 	avg_time 	0.004247841618
scalar tree_4_3_u00_r19_network.statistics 	downloads 	325158
scalar tree_4_3_u00_r19_network.statistics 	total_cost 	0
scalar tree_4_3_u00_r19_network.statistics 	total_replicas 	100000
scalar tree_4_3_u00_r19_network.statistics 	inner_hit 	0.38350586484109
scalar tree_4_3_u00_r19_network.node[0].core_layer 	interests[0] 	203564
scalar tree_4_3_u00_r19_network.node[0].core_layer 	repo_load[0] 	200458
scalar tree_4_3_u00_r19_network.node[0].core_layer 	data[0] 	0
scalar tree_4_3_u00_r19_network.node[0].core_layer 	repo_int[0] 	200458
scalar tree_4_3_u00_r19_network.node[0].content_store 	p_hit[0] 	0.01525810064648
scalar tree_4_3_u00_r19_network.node[0].content_store 	hits[0] 	3106
scalar tree_4_3_u00_r19_network.node[0].content_store 	misses[0] 	200458
scalar tree_4_3_u00_r19_network.node[0].content_store 	decision_yes[0] 	3155
scalar tree_4_3_u00_r19_network.node[0].content_store 	decision_no[0] 	197303
scalar tree_4_3_u00_r19_network.node[0].content_store 	decision_ratio[0] 	0.015738957786669
scalar tree_4_3_u00_r19_network.node[1].core_layer 	interests[1] 	74129
scalar tree_4_3_u00_r19_network.node[1].core_layer 	data[1] 	72351
scalar tree_4_3_u00_r19_network.node[1].content_store 	p_hit[1] 	0.023971724965938
scalar tree_4_3_u00_r19_network.node[1].content_store 	hits[1] 	1777
scalar tree_4_3_u00_r19_network.node[1].content_store 	misses[1] 	72352
scalar tree_4_3_u00_r19_network.node[1].content_store 	decision_yes[1] 	895
scalar tree_4_3_u00_r19_network.node[1].content_store 	decision_no[1] 	71456
scalar tree_4_3_u00_r19_network.node[1].content_store 	decision_ratio[1] 	0.012370250583959
scalar tree_4_3_u00_r19_network.node[2].core_layer 	interests[2] 	73846
scalar tree_4_3_u00_r19_network.node[2].core_layer 	data[2] 	72083
scalar tree_4_3_u00_r19_network.node[2].content_store 	p_hit[2] 	0.023860466375972
scalar tree_4_3_u00_r19_network.node[2].content_store 	hits[2] 	1762
scalar tree_4_3_u00_r19_network.node[2].content_store 	misses[2] 	72084
scalar tree_4_3_u00_r19_network.node[2].content_store 	decision_yes[2] 	845
scalar tree_4_3_u00_r19_network.node[2].content_store 	decision_no[2] 	71238
scalar tree_4_3_u00_r19_network.node[2].content_store 	decision_ratio[2] 	0.011722597561145
scalar tree_4_3_u00_r19_network.node[3].core_layer 	interests[3] 	73655
scalar tree_4_3_u00_r19_network.node[3].core_layer 	data[3] 	71966
scalar tree_4_3_u00_r19_network.node[3].content_store 	p_hit[3] 	0.022931233453262
scalar tree_4_3_u00_r19_network.node[3].content_store 	hits[3] 	1689
scalar tree_4_3_u00_r19_network.node[3].content_store 	misses[3] 	71966
scalar tree_4_3_u00_r19_network.node[3].content_store 	decision_yes[3] 	926
scalar tree_4_3_u00_r19_network.node[3].content_store 	decision_no[3] 	71040
scalar tree_4_3_u00_r19_network.node[3].content_store 	decision_ratio[3] 	0.012867187282884
scalar tree_4_3_u00_r19_network.node[4].core_layer 	interests[4] 	28188
scalar tree_4_3_u00_r19_network.node[4].core_layer 	data[4] 	26021
scalar tree_4_3_u00_r19_network.node[4].content_store 	p_hit[4] 	0.076876685114233
scalar tree_4_3_u00_r19_network.node[4].content_store 	hits[4] 	2167
scalar tree_4_3_u00_r19_network.node[4].content_store 	misses[4] 	26021
scalar tree_4_3_u00_r19_network.node[4].content_store 	decision_yes[4] 	415
scalar tree_4_3_u00_r19_network.node[4].content_store 	decision_no[4] 	25606
scalar tree_4_3_u00_r19_network.node[4].content_store 	decision_ratio[4] 	0.015948656854079
scalar tree_4_3_u00_r19_network.node[5].core_layer 	interests[5] 	28162
scalar tree_4_3_u00_r19_network.node[5].core_layer 	data[5] 	25983
scalar tree_4_3_u00_r19_network.node[5].content_store 	p_hit[5] 	0.077373766067751
scalar tree_4_3_u00_r19_network.node[5].content_store 	hits[5] 	2179
scalar tree_4_3_u00_r19_network.node[5].content_store 	misses[5] 	25983
scalar tree_4_3_u00_r19_network.node[5].content_store 	decision_yes[5] 	340
scalar tree_4_3_u00_r19_network.node[5].content_store 	decision_no[5] 	25643
scalar tree_4_3_u00_r19_network.node[5].content_store 	decision_ratio[5] 	0.013085478967017
scalar tree_4_3_u00_r19_network.node[6].core_layer 	interests[6] 	28443
scalar tree_4_3_u00_r19_network.node[6].core_layer 	data[6] 	26232
scalar tree_4_3_u00_r19_network.node[6].content_store 	p_hit[6] 	0.077734416200823
scalar tree_4_3_u00_r19_network.node[6].content_store 	hits[6] 	2211
scalar tree_4_3_u00_r19_network.node[6].content_store 	misses[6] 	26232
scalar tree_4_3_u00_r19_network.node[6].content_store 	decision_yes[6] 	351
scalar tree_4_3_u00_r19_network.node[6].content_store 	decision_no[6] 	25881
scalar tree_4_3_u00_r19_network.node[6].content_store 	decision_ratio[6] 	0.013380603842635
scalar tree_4_3_u00_r19_network.node[7].core_layer 	interests[7] 	28235
scalar tree_4_3_u00_r19_network.node[7].core_layer 	data[7] 	26064
scalar tree_4_3_u00_r19_network.node[7].content_store 	p_hit[7] 	0.076890384274836
scalar tree_4_3_u00_r19_network.node[7].content_store 	hits[7] 	2171
scalar tree_4_3_u00_r19_network.node[7].content_store 	misses[7] 	26064
scalar tree_4_3_u00_r19_network.node[7].content_store 	decision_yes[7] 	372
scalar tree_4_3_u00_r19_network.node[7].content_store 	decision_no[7] 	25692
scalar tree_4_3_u00_r19_network.node[7].content_store 	decision_ratio[7] 	0.01427255985267
scalar tree_4_3_u00_r19_network.node[8].core_layer 	interests[8] 	27910
scalar tree_4_3_u00_r19_network.node[8].core_layer 	data[8] 	25951
scalar tree_4_3_u00_r19_network.node[8].content_store 	p_hit[8] 	0.07018989609459
scalar tree_4_3_u00_r19_network.node[8].content_store 	hits[8] 	1959
scalar tree_4_3_u00_r19_network.node[8].content_store 	misses[8] 	25951
scalar tree_4_3_u00_r19_network.node[8].content_store 	decision_yes[8] 	366
scalar tree_4_3_u00_r19_network.node[8].content_store 	decision_no[8] 	25585
scalar tree_4_3_u00_r19_network.node[8].content_store 	decision_ratio[8] 	0.014103502755192
scalar tree_4_3_u00_r19_network.node[9].core_layer 	interests[9] 	28022
scalar tree_4_3_u00_r19_network.node[9].core_layer 	data[9] 	25879
scalar tree_4_3_u00_r19_network.node[9].content_store 	p_hit[9] 	0.076475626293626
scalar tree_4_3_u00_r19_network.node[9].content_store 	hits[9] 	2143
scalar tree_4_3_u00_r19_network.node[9].content_store 	misses[9] 	25879
scalar tree_4_3_u00_r19_network.node[9].content_store 	decision_yes[9] 	360
scalar tree_4_3_u00_r19_network.node[9].content_store 	decision_no[9] 	25519
scalar tree_4_3_u00_r19_network.node[9].content_store 	decision_ratio[9] 	0.013910893002048
scalar tree_4_3_u00_r19_network.node[10].core_layer 	interests[10] 	27706
scalar tree_4_3_u00_r19_network.node[10].core_layer 	data[10] 	25715
scalar tree_4_3_u00_r19_network.node[10].content_store 	p_hit[10] 	0.071825597343536
scalar tree_4_3_u00_r19_network.node[10].content_store 	hits[10] 	1990
scalar tree_4_3_u00_r19_network.node[10].content_store 	misses[10] 	25716
scalar tree_4_3_u00_r19_network.node[10].content_store 	decision_yes[10] 	415
scalar tree_4_3_u00_r19_network.node[10].content_store 	decision_no[10] 	25300
scalar tree_4_3_u00_r19_network.node[10].content_store 	decision_ratio[10] 	0.016138440598872
scalar tree_4_3_u00_r19_network.node[11].core_layer 	interests[11] 	28326
scalar tree_4_3_u00_r19_network.node[11].core_layer 	data[11] 	26229
scalar tree_4_3_u00_r19_network.node[11].content_store 	p_hit[11] 	0.074030925651345
scalar tree_4_3_u00_r19_network.node[11].content_store 	hits[11] 	2097
scalar tree_4_3_u00_r19_network.node[11].content_store 	misses[11] 	26229
scalar tree_4_3_u00_r19_network.node[11].content_store 	decision_yes[11] 	374
scalar tree_4_3_u00_r19_network.node[11].content_store 	decision_no[11] 	25855
scalar tree_4_3_u00_r19_network.node[11].content_store 	decision_ratio[11] 	0.014259026268634
scalar tree_4_3_u00_r19_network.node[12].core_layer 	interests[12] 	28116
scalar tree_4_3_u00_r19_network.node[12].core_layer 	data[12] 	25850
scalar tree_4_3_u00_r19_network.node[12].content_store 	p_hit[12] 	0.080630246123204
scalar tree_4_3_u00_r19_network.node[12].content_store 	hits[12] 	2267
scalar tree_4_3_u00_r19_network.node[12].content_store 	misses[12] 	25849
scalar tree_4_3_u00_r19_network.node[12].content_store 	decision_yes[12] 	396
scalar tree_4_3_u00_r19_network.node[12].content_store 	decision_no[12] 	25454
scalar tree_4_3_u00_r19_network.node[12].content_store 	decision_ratio[12] 	0.01531914893617
scalar tree_4_3_u00_r19_network.node[13].core_layer 	interests[13] 	12511
scalar tree_4_3_u00_r19_network.node[13].core_layer 	data[13] 	8924
scalar tree_4_3_u00_r19_network.node[13].content_store 	p_hit[13] 	0.28670769722644
scalar tree_4_3_u00_r19_network.node[13].content_store 	hits[13] 	3587
scalar tree_4_3_u00_r19_network.node[13].content_store 	misses[13] 	8924
scalar tree_4_3_u00_r19_network.node[13].content_store 	decision_yes[13] 	124
scalar tree_4_3_u00_r19_network.node[13].content_store 	decision_no[13] 	8800
scalar tree_4_3_u00_r19_network.node[13].content_store 	decision_ratio[13] 	0.013895114298521
scalar tree_4_3_u00_r19_network.node[14].core_layer 	interests[14] 	12758
scalar tree_4_3_u00_r19_network.node[14].core_layer 	data[14] 	9043
scalar tree_4_3_u00_r19_network.node[14].content_store 	p_hit[14] 	0.29118984166797
scalar tree_4_3_u00_r19_network.node[14].content_store 	hits[14] 	3715
scalar tree_4_3_u00_r19_network.node[14].content_store 	misses[14] 	9043
scalar tree_4_3_u00_r19_network.node[14].content_store 	decision_yes[14] 	125
scalar tree_4_3_u00_r19_network.node[14].content_store 	decision_no[14] 	8918
scalar tree_4_3_u00_r19_network.node[14].content_store 	decision_ratio[14] 	0.013822846400531
scalar tree_4_3_u00_r19_network.node[15].core_layer 	interests[15] 	12325
scalar tree_4_3_u00_r19_network.node[15].core_layer 	data[15] 	8772
scalar tree_4_3_u00_r19_network.node[15].content_store 	p_hit[15] 	0.28827586206897
scalar tree_4_3_u00_r19_network.node[15].content_store 	hits[15] 	3553
scalar tree_4_3_u00_r19_network.node[15].content_store 	misses[15] 	8772
scalar tree_4_3_u00_r19_network.node[15].content_store 	decision_yes[15] 	116
scalar tree_4_3_u00_r19_network.node[15].content_store 	decision_no[15] 	8656
scalar tree_4_3_u00_r19_network.node[15].content_store 	decision_ratio[15] 	0.013223894208846
scalar tree_4_3_u00_r19_network.node[16].core_layer 	interests[16] 	12499
scalar tree_4_3_u00_r19_network.node[16].core_layer 	data[16] 	8861
scalar tree_4_3_u00_r19_network.node[16].content_store 	p_hit[16] 	0.29106328506281
scalar tree_4_3_u00_r19_network.node[16].content_store 	hits[16] 	3638
scalar tree_4_3_u00_r19_network.node[16].content_store 	misses[16] 	8861
scalar tree_4_3_u00_r19_network.node[16].content_store 	decision_yes[16] 	104
scalar tree_4_3_u00_r19_network.node[16].content_store 	decision_no[16] 	8757
scalar tree_4_3_u00_r19_network.node[16].content_store 	decision_ratio[16] 	0.011736824286198
scalar tree_4_3_u00_r19_network.node[17].core_layer 	interests[17] 	12484
scalar tree_4_3_u00_r19_network.node[17].core_layer 	data[17] 	8835
scalar tree_4_3_u00_r19_network.node[17].content_store 	p_hit[17] 	0.29229413649471
scalar tree_4_3_u00_r19_network.node[17].content_store 	hits[17] 	3649
scalar tree_4_3_u00_r19_network.node[17].content_store 	misses[17] 	8835
scalar tree_4_3_u00_r19_network.node[17].content_store 	decision_yes[17] 	123
scalar tree_4_3_u00_r19_network.node[17].content_store 	decision_no[17] 	8712
scalar tree_4_3_u00_r19_network.node[17].content_store 	decision_ratio[17] 	0.013921901528014
scalar tree_4_3_u00_r19_network.node[18].core_layer 	interests[18] 	12676
scalar tree_4_3_u00_r19_network.node[18].core_layer 	data[18] 	8982
scalar tree_4_3_u00_r19_network.node[18].content_store 	p_hit[18] 	0.29141685074156
scalar tree_4_3_u00_r19_network.node[18].content_store 	hits[18] 	3694
scalar tree_4_3_u00_r19_network.node[18].content_store 	misses[18] 	8982
scalar tree_4_3_u00_r19_network.node[18].content_store 	decision_yes[18] 	143
scalar tree_4_3_u00_r19_network.node[18].content_store 	decision_no[18] 	8839
scalar tree_4_3_u00_r19_network.node[18].content_store 	decision_ratio[18] 	0.015920730349588
scalar tree_4_3_u00_r19_network.node[19].core_layer 	interests[19] 	12511
scalar tree_4_3_u00_r19_network.node[19].core_layer 	data[19] 	8987
scalar tree_4_3_u00_r19_network.node[19].content_store 	p_hit[19] 	0.2816721285269
scalar tree_4_3_u00_r19_network.node[19].content_store 	hits[19] 	3524
scalar tree_4_3_u00_r19_network.node[19].content_store 	misses[19] 	8987
scalar tree_4_3_u00_r19_network.node[19].content_store 	decision_yes[19] 	97
scalar tree_4_3_u00_r19_network.node[19].content_store 	decision_no[19] 	8890
scalar tree_4_3_u00_r19_network.node[19].content_store 	decision_ratio[19] 	0.010793368198509
scalar tree_4_3_u00_r19_network.node[20].core_layer 	interests[20] 	12470
scalar tree_4_3_u00_r19_network.node[20].core_layer 	data[20] 	8886
scalar tree_4_3_u00_r19_network.node[20].content_store 	p_hit[20] 	0.28740978348035
scalar tree_4_3_u00_r19_network.node[20].content_store 	hits[20] 	3584
scalar tree_4_3_u00_r19_network.node[20].content_store 	misses[20] 	8886
scalar tree_4_3_u00_r19_network.node[20].content_store 	decision_yes[20] 	121
scalar tree_4_3_u00_r19_network.node[20].content_store 	decision_no[20] 	8765
scalar tree_4_3_u00_r19_network.node[20].content_store 	decision_ratio[20] 	0.013616925500788
scalar tree_4_3_u00_r19_network.node[21].core_layer 	interests[21] 	12680
scalar tree_4_3_u00_r19_network.node[21].core_layer 	data[21] 	9135
scalar tree_4_3_u00_r19_network.node[21].content_store 	p_hit[21] 	0.27957413249211
scalar tree_4_3_u00_r19_network.node[21].content_store 	hits[21] 	3545
scalar tree_4_3_u00_r19_network.node[21].content_store 	misses[21] 	9135
scalar tree_4_3_u00_r19_network.node[21].content_store 	decision_yes[21] 	130
scalar tree_4_3_u00_r19_network.node[21].content_store 	decision_no[21] 	9005
scalar tree_4_3_u00_r19_network.node[21].content_store 	decision_ratio[21] 	0.014230979748221
scalar tree_4_3_u00_r19_network.node[22].core_layer 	interests[22] 	12643
scalar tree_4_3_u00_r19_network.node[22].core_layer 	data[22] 	8900
scalar tree_4_3_u00_r19_network.node[22].content_store 	p_hit[22] 	0.29597405679032
scalar tree_4_3_u00_r19_network.node[22].content_store 	hits[22] 	3742
scalar tree_4_3_u00_r19_network.node[22].content_store 	misses[22] 	8901
scalar tree_4_3_u00_r19_network.node[22].content_store 	decision_yes[22] 	114
scalar tree_4_3_u00_r19_network.node[22].content_store 	decision_no[22] 	8786
scalar tree_4_3_u00_r19_network.node[22].content_store 	decision_ratio[22] 	0.012808988764045
scalar tree_4_3_u00_r19_network.node[23].core_layer 	interests[23] 	12552
scalar tree_4_3_u00_r19_network.node[23].core_layer 	data[23] 	9053
scalar tree_4_3_u00_r19_network.node[23].content_store 	p_hit[23] 	0.27876035691523
scalar tree_4_3_u00_r19_network.node[23].content_store 	hits[23] 	3499
scalar tree_4_3_u00_r19_network.node[23].content_store 	misses[23] 	9053
scalar tree_4_3_u00_r19_network.node[23].content_store 	decision_yes[23] 	134
scalar tree_4_3_u00_r19_network.node[23].content_store 	decision_no[23] 	8919
scalar tree_4_3_u00_r19_network.node[23].content_store 	decision_ratio[23] 	0.014801723185684
scalar tree_4_3_u00_r19_network.node[24].core_layer 	interests[24] 	12340
scalar tree_4_3_u00_r19_network.node[24].core_layer 	data[24] 	8802
scalar tree_4_3_u00_r19_network.node[24].content_store 	p_hit[24] 	0.28670988654781
scalar tree_4_3_u00_r19_network.node[24].content_store 	hits[24] 	3538
scalar tree_4_3_u00_r19_network.node[24].content_store 	misses[24] 	8802
scalar tree_4_3_u00_r19_network.node[24].content_store 	decision_yes[24] 	111
scalar tree_4_3_u00_r19_network.node[24].content_store 	decision_no[24] 	8691
scalar tree_4_3_u00_r19_network.node[24].content_store 	decision_ratio[24] 	0.012610770279482
scalar tree_4_3_u00_r19_network.node[25].core_layer 	interests[25] 	12670
scalar tree_4_3_u00_r19_network.node[25].core_layer 	data[25] 	8873
scalar tree_4_3_u00_r19_network.node[25].content_store 	p_hit[25] 	0.29968429360695
scalar tree_4_3_u00_r19_network.node[25].content_store 	hits[25] 	3797
scalar tree_4_3_u00_r19_network.node[25].content_store 	misses[25] 	8873
scalar tree_4_3_u00_r19_network.node[25].content_store 	decision_yes[25] 	105
scalar tree_4_3_u00_r19_network.node[25].content_store 	decision_no[25] 	8768
scalar tree_4_3_u00_r19_network.node[25].content_store 	decision_ratio[25] 	0.011833652654119
scalar tree_4_3_u00_r19_network.node[26].core_layer 	interests[26] 	12605
scalar tree_4_3_u00_r19_network.node[26].core_layer 	data[26] 	8940
scalar tree_4_3_u00_r19_network.node[26].content_store 	p_hit[26] 	0.29075763585879
scalar tree_4_3_u00_r19_network.node[26].content_store 	hits[26] 	3665
scalar tree_4_3_u00_r19_network.node[26].content_store 	misses[26] 	8940
scalar tree_4_3_u00_r19_network.node[26].content_store 	decision_yes[26] 	120
scalar tree_4_3_u00_r19_network.node[26].content_store 	decision_no[26] 	8820
scalar tree_4_3_u00_r19_network.node[26].content_store 	decision_ratio[26] 	0.013422818791946
scalar tree_4_3_u00_r19_network.node[27].core_layer 	interests[27] 	12390
scalar tree_4_3_u00_r19_network.node[27].core_layer 	data[27] 	8815
scalar tree_4_3_u00_r19_network.node[27].content_store 	p_hit[27] 	0.28853914447135
scalar tree_4_3_u00_r19_network.node[27].content_store 	hits[27] 	3575
scalar tree_4_3_u00_r19_network.node[27].content_store 	misses[27] 	8815
scalar tree_4_3_u00_r19_network.node[27].content_store 	decision_yes[27] 	116
scalar tree_4_3_u00_r19_network.node[27].content_store 	decision_no[27] 	8699
scalar tree_4_3_u00_r19_network.node[27].content_store 	decision_ratio[27] 	0.013159387407828
scalar tree_4_3_u00_r19_network.node[28].core_layer 	interests[28] 	12377
scalar tree_4_3_u00_r19_network.node[28].core_layer 	data[28] 	8827
scalar tree_4_3_u00_r19_network.node[28].content_store 	p_hit[28] 	0.28682233174436
scalar tree_4_3_u00_r19_network.node[28].content_store 	hits[28] 	3550
scalar tree_4_3_u00_r19_network.node[28].content_store 	misses[28] 	8827
scalar tree_4_3_u00_r19_network.node[28].content_store 	decision_yes[28] 	111
scalar tree_4_3_u00_r19_network.node[28].content_store 	decision_no[28] 	8716
scalar tree_4_3_u00_r19_network.node[28].content_store 	decision_ratio[28] 	0.012575053812167
scalar tree_4_3_u00_r19_network.node[29].core_layer 	interests[29] 	12431
scalar tree_4_3_u00_r19_network.node[29].core_layer 	data[29] 	8886
scalar tree_4_3_u00_r19_network.node[29].content_store 	p_hit[29] 	0.28517416137077
scalar tree_4_3_u00_r19_network.node[29].content_store 	hits[29] 	3545
scalar tree_4_3_u00_r19_network.node[29].content_store 	misses[29] 	8886
scalar tree_4_3_u00_r19_network.node[29].content_store 	decision_yes[29] 	111
scalar tree_4_3_u00_r19_network.node[29].content_store 	decision_no[29] 	8775
scalar tree_4_3_u00_r19_network.node[29].content_store 	decision_ratio[29] 	0.012491559756921
scalar tree_4_3_u00_r19_network.node[30].core_layer 	interests[30] 	12627
scalar tree_4_3_u00_r19_network.node[30].core_layer 	data[30] 	8926
scalar tree_4_3_u00_r19_network.node[30].content_store 	p_hit[30] 	0.29310208283836
scalar tree_4_3_u00_r19_network.node[30].content_store 	hits[30] 	3701
scalar tree_4_3_u00_r19_network.node[30].content_store 	misses[30] 	8926
scalar tree_4_3_u00_r19_network.node[30].content_store 	decision_yes[30] 	116
scalar tree_4_3_u00_r19_network.node[30].content_store 	decision_no[30] 	8810
scalar tree_4_3_u00_r19_network.node[30].content_store 	decision_ratio[30] 	0.012995742773919
scalar tree_4_3_u00_r19_network.node[31].core_layer 	interests[31] 	12197
scalar tree_4_3_u00_r19_network.node[31].core_layer 	data[31] 	8714
scalar tree_4_3_u00_r19_network.node[31].content_store 	p_hit[31] 	0.28556202344839
scalar tree_4_3_u00_r19_network.node[31].content_store 	hits[31] 	3483
scalar tree_4_3_u00_r19_network.node[31].content_store 	misses[31] 	8714
scalar tree_4_3_u00_r19_network.node[31].content_store 	decision_yes[31] 	118
scalar tree_4_3_u00_r19_network.node[31].content_store 	decision_no[31] 	8596
scalar tree_4_3_u00_r19_network.node[31].content_store 	decision_ratio[31] 	0.01354142758779
scalar tree_4_3_u00_r19_network.node[32].core_layer 	interests[32] 	12366
scalar tree_4_3_u00_r19_network.node[32].core_layer 	data[32] 	8822
scalar tree_4_3_u00_r19_network.node[32].content_store 	p_hit[32] 	0.28651140223193
scalar tree_4_3_u00_r19_network.node[32].content_store 	hits[32] 	3543
scalar tree_4_3_u00_r19_network.node[32].content_store 	misses[32] 	8823
scalar tree_4_3_u00_r19_network.node[32].content_store 	decision_yes[32] 	105
scalar tree_4_3_u00_r19_network.node[32].content_store 	decision_no[32] 	8717
scalar tree_4_3_u00_r19_network.node[32].content_store 	decision_ratio[32] 	0.011902063024258
scalar tree_4_3_u00_r19_network.node[33].core_layer 	interests[33] 	12328
scalar tree_4_3_u00_r19_network.node[33].core_layer 	data[33] 	8832
scalar tree_4_3_u00_r19_network.node[33].content_store 	p_hit[33] 	0.28358208955224
scalar tree_4_3_u00_r19_network.node[33].content_store 	hits[33] 	3496
scalar tree_4_3_u00_r19_network.node[33].content_store 	misses[33] 	8832
scalar tree_4_3_u00_r19_network.node[33].content_store 	decision_yes[33] 	109
scalar tree_4_3_u00_r19_network.node[33].content_store 	decision_no[33] 	8723
scalar tree_4_3_u00_r19_network.node[33].content_store 	decision_ratio[33] 	0.012341485507246
scalar tree_4_3_u00_r19_network.node[34].core_layer 	interests[34] 	12522
scalar tree_4_3_u00_r19_network.node[34].core_layer 	data[34] 	8939
scalar tree_4_3_u00_r19_network.node[34].content_store 	p_hit[34] 	0.28613639993611
scalar tree_4_3_u00_r19_network.node[34].content_store 	hits[34] 	3583
scalar tree_4_3_u00_r19_network.node[34].content_store 	misses[34] 	8939
scalar tree_4_3_u00_r19_network.node[34].content_store 	decision_yes[34] 	115
scalar tree_4_3_u00_r19_network.node[34].content_store 	decision_no[34] 	8824
scalar tree_4_3_u00_r19_network.node[34].content_store 	decision_ratio[34] 	0.012864973710706
scalar tree_4_3_u00_r19_network.node[35].core_layer 	interests[35] 	12507
scalar tree_4_3_u00_r19_network.node[35].core_layer 	data[35] 	8983
scalar tree_4_3_u00_r19_network.node[35].content_store 	p_hit[35] 	0.28176221316063
scalar tree_4_3_u00_r19_network.node[35].content_store 	hits[35] 	3524
scalar tree_4_3_u00_r19_network.node[35].content_store 	misses[35] 	8983
scalar tree_4_3_u00_r19_network.node[35].content_store 	decision_yes[35] 	101
scalar tree_4_3_u00_r19_network.node[35].content_store 	decision_no[35] 	8882
scalar tree_4_3_u00_r19_network.node[35].content_store 	decision_ratio[35] 	0.011243459868641
scalar tree_4_3_u00_r19_network.node[36].core_layer 	interests[36] 	12569
scalar tree_4_3_u00_r19_network.node[36].core_layer 	data[36] 	9031
scalar tree_4_3_u00_r19_network.node[36].content_store 	p_hit[36] 	0.28148619619699
scalar tree_4_3_u00_r19_network.node[36].content_store 	hits[36] 	3538
scalar tree_4_3_u00_r19_network.node[36].content_store 	misses[36] 	9031
scalar tree_4_3_u00_r19_network.node[36].content_store 	decision_yes[36] 	113
scalar tree_4_3_u00_r19_network.node[36].content_store 	decision_no[36] 	8918
scalar tree_4_3_u00_r19_network.node[36].content_store 	decision_ratio[36] 	0.012512457092238
scalar tree_4_3_u00_r19_network.node[37].core_layer 	interests[37] 	12581
scalar tree_4_3_u00_r19_network.node[37].core_layer 	data[37] 	9042
scalar tree_4_3_u00_r19_network.node[37].content_store 	p_hit[37] 	0.2812177092441
scalar tree_4_3_u00_r19_network.node[37].content_store 	hits[37] 	3538
scalar tree_4_3_u00_r19_network.node[37].content_store 	misses[37] 	9043
scalar tree_4_3_u00_r19_network.node[37].content_store 	decision_yes[37] 	131
scalar tree_4_3_u00_r19_network.node[37].content_store 	decision_no[37] 	8911
scalar tree_4_3_u00_r19_network.node[37].content_store 	decision_ratio[37] 	0.014487945144879
scalar tree_4_3_u00_r19_network.node[38].core_layer 	interests[38] 	12509
scalar tree_4_3_u00_r19_network.node[38].core_layer 	data[38] 	8768
scalar tree_4_3_u00_r19_network.node[38].content_store 	p_hit[38] 	0.29906467343513
scalar tree_4_3_u00_r19_network.node[38].content_store 	hits[38] 	3741
scalar tree_4_3_u00_r19_network.node[38].content_store 	misses[38] 	8768
scalar tree_4_3_u00_r19_network.node[38].content_store 	decision_yes[38] 	108
scalar tree_4_3_u00_r19_network.node[38].content_store 	decision_no[38] 	8660
scalar tree_4_3_u00_r19_network.node[38].content_store 	decision_ratio[38] 	0.012317518248175
scalar tree_4_3_u00_r19_network.node[39].core_layer 	interests[39] 	12326
scalar tree_4_3_u00_r19_network.node[39].core_layer 	data[39] 	8694
scalar tree_4_3_u00_r19_network.node[39].content_store 	p_hit[39] 	0.29474282005517
scalar tree_4_3_u00_r19_network.node[39].content_store 	hits[39] 	3633
scalar tree_4_3_u00_r19_network.node[39].content_store 	misses[39] 	8693
scalar tree_4_3_u00_r19_network.node[39].content_store 	decision_yes[39] 	103
scalar tree_4_3_u00_r19_network.node[39].content_store 	decision_no[39] 	8591
scalar tree_4_3_u00_r19_network.node[39].content_store 	decision_ratio[39] 	0.011847250977686
scalar tree_4_3_u00_r19_network.client[13] 	hdistance[13] 	2.7415823519655
scalar tree_4_3_u00_r19_network.client[13] 	downloads[13] 	12058
scalar tree_4_3_u00_r19_network.client[13] 	avg_time[13] 	0.004253604528
scalar tree_4_3_u00_r19_network.client[14] 	hdistance[14] 	2.7393573642146
scalar tree_4_3_u00_r19_network.client[14] 	downloads[14] 	12262
scalar tree_4_3_u00_r19_network.client[14] 	avg_time[14] 	0.004248243546
scalar tree_4_3_u00_r19_network.client[15] 	hdistance[15] 	2.7319831223629
scalar tree_4_3_u00_r19_network.client[15] 	downloads[15] 	11850
scalar tree_4_3_u00_r19_network.client[15] 	avg_time[15] 	0.004243601489
scalar tree_4_3_u00_r19_network.client[16] 	hdistance[16] 	2.74461717516
scalar tree_4_3_u00_r19_network.client[16] 	downloads[16] 	12029
scalar tree_4_3_u00_r19_network.client[16] 	avg_time[16] 	0.004250558148
scalar tree_4_3_u00_r19_network.client[17] 	hdistance[17] 	2.7313994315332
scalar tree_4_3_u00_r19_network.client[17] 	downloads[17] 	11962
scalar tree_4_3_u00_r19_network.client[17] 	avg_time[17] 	0.004232399614
scalar tree_4_3_u00_r19_network.client[18] 	hdistance[18] 	2.7116895874263
scalar tree_4_3_u00_r19_network.client[18] 	downloads[18] 	12216
scalar tree_4_3_u00_r19_network.client[18] 	avg_time[18] 	0.004203827969
scalar tree_4_3_u00_r19_network.client[19] 	hdistance[19] 	2.7651684463207
scalar tree_4_3_u00_r19_network.client[19] 	downloads[19] 	12081
scalar tree_4_3_u00_r19_network.client[19] 	avg_time[19] 	0.004282423928
scalar tree_4_3_u00_r19_network.client[20] 	hdistance[20] 	2.7308298101633
scalar tree_4_3_u00_r19_network.client[20] 	downloads[20] 	12063
scalar tree_4_3_u00_r19_network.client[20] 	avg_time[20] 	0.004235427625
scalar tree_4_3_u00_r19_network.client[21] 	hdistance[21] 	2.7488197948885
scalar tree_4_3_u00_r19_network.client[21] 	downloads[21] 	12286
scalar tree_4_3_u00_r19_network.client[21] 	avg_time[21] 	0.004266316318
scalar tree_4_3_u00_r19_network.client[22] 	hdistance[22] 	2.7118084227911
scalar tree_4_3_u00_r19_network.client[22] 	downloads[22] 	12110
scalar tree_4_3_u00_r19_network.client[22] 	avg_time[22] 	0.004206401014
scalar tree_4_3_u00_r19_network.client[23] 	hdistance[23] 	2.7690277892307
scalar tree_4_3_u00_r19_network.client[23] 	downloads[23] 	12127
scalar tree_4_3_u00_r19_network.client[23] 	avg_time[23] 	0.004290423277
scalar tree_4_3_u00_r19_network.client[24] 	hdistance[24] 	2.7546788062721
scalar tree_4_3_u00_r19_network.client[24] 	downloads[24] 	11862
scalar tree_4_3_u00_r19_network.client[24] 	avg_time[24] 	0.004266056734
scalar tree_4_3_u00_r19_network.client[25] 	hdistance[25] 	2.6968954248366
scalar tree_4_3_u00_r19_network.client[25] 	downloads[25] 	12240
scalar tree_4_3_u00_r19_network.client[25] 	avg_time[25] 	0.004175813937
scalar tree_4_3_u00_r19_network.client[26] 	hdistance[26] 	2.7490085922009
scalar tree_4_3_u00_r19_network.client[26] 	downloads[26] 	12104
scalar tree_4_3_u00_r19_network.client[26] 	avg_time[26] 	0.004259084852
scalar tree_4_3_u00_r19_network.client[27] 	hdistance[27] 	2.7339526320194
scalar tree_4_3_u00_r19_network.client[27] 	downloads[27] 	11949
scalar tree_4_3_u00_r19_network.client[27] 	avg_time[27] 	0.004239180205
scalar tree_4_3_u00_r19_network.client[28] 	hdistance[28] 	2.7456279809221
scalar tree_4_3_u00_r19_network.client[28] 	downloads[28] 	11951
scalar tree_4_3_u00_r19_network.client[28] 	avg_time[28] 	0.004246001507
scalar tree_4_3_u00_r19_network.client[29] 	hdistance[29] 	2.7394166666667
scalar tree_4_3_u00_r19_network.client[29] 	downloads[29] 	12000
scalar tree_4_3_u00_r19_network.client[29] 	avg_time[29] 	0.004249996997
scalar tree_4_3_u00_r19_network.client[30] 	hdistance[30] 	2.7084048027444
scalar tree_4_3_u00_r19_network.client[30] 	downloads[30] 	12243
scalar tree_4_3_u00_r19_network.client[30] 	avg_time[30] 	0.004195371108
scalar tree_4_3_u00_r19_network.client[31] 	hdistance[31] 	2.7583432153142
scalar tree_4_3_u00_r19_network.client[31] 	downloads[31] 	11806
scalar tree_4_3_u00_r19_network.client[31] 	avg_time[31] 	0.004270537454
scalar tree_4_3_u00_r19_network.client[32] 	hdistance[32] 	2.7591376115883
scalar tree_4_3_u00_r19_network.client[32] 	downloads[32] 	11874
scalar tree_4_3_u00_r19_network.client[32] 	avg_time[32] 	0.004276736157
scalar tree_4_3_u00_r19_network.client[33] 	hdistance[33] 	2.7601078167116
scalar tree_4_3_u00_r19_network.client[33] 	downloads[33] 	11872
scalar tree_4_3_u00_r19_network.client[33] 	avg_time[33] 	0.004281836661
scalar tree_4_3_u00_r19_network.client[34] 	hdistance[34] 	2.7478706689821
scalar tree_4_3_u00_r19_network.client[34] 	downloads[34] 	12093
scalar tree_4_3_u00_r19_network.client[34] 	avg_time[34] 	0.004258659002
scalar tree_4_3_u00_r19_network.client[35] 	hdistance[35] 	2.7644143399967
scalar tree_4_3_u00_r19_network.client[35] 	downloads[35] 	12106
scalar tree_4_3_u00_r19_network.client[35] 	avg_time[35] 	0.004283988384
scalar tree_4_3_u00_r19_network.client[36] 	hdistance[36] 	2.7620031402363
scalar tree_4_3_u00_r19_network.client[36] 	downloads[36] 	12101
scalar tree_4_3_u00_r19_network.client[36] 	avg_time[36] 	0.004280139127
scalar tree_4_3_u00_r19_network.client[37] 	hdistance[37] 	2.745820228439
scalar tree_4_3_u00_r19_network.client[37] 	downloads[37] 	12082
scalar tree_4_3_u00_r19_network.client[37] 	avg_time[37] 	0.004266383165
scalar tree_4_3_u00_r19_network.client[38] 	hdistance[38] 	2.7110370678884
scalar tree_4_3_u00_r19_network.client[38] 	downloads[38] 	12005
scalar tree_4_3_u00_r19_network.client[38] 	avg_time[38] 	0.004201079873
scalar tree_4_3_u00_r19_network.client[39] 	hdistance[39] 	2.7289869778454
scalar tree_4_3_u00_r19_network.client[39] 	downloads[39] 	11826
scalar tree_4_3_u00_r19_network.client[39] 	avg_time[39] 	0.004227631069
