version 2
run General-2-20160902-11:18:22-7280
attr a 0.9
attr cd wfc0.01
attr configname General
attr cr lru
attr datetime 20160902-11:18:22
attr experiment General
attr fsize 1
attr inifile hw5115/scenario_Y/omnetp.ini
attr iterationvars "$name=tree_4_3, $un=00, $rep=3, $cd=wfc0.01, $cr=lru, $fsize=1, $a=0.9, $sl=nrr, $ttl=1000, $variance=0.05"
attr iterationvars2 "$name=tree_4_3, $un=00, $rep=3, $cd=wfc0.01, $cr=lru, $fsize=1, $a=0.9, $sl=nrr, $ttl=1000, $variance=0.05, $repetition=0"
attr measurement "$name=tree_4_3, $un=00, $rep=3, $cd=wfc0.01, $cr=lru, $fsize=1, $a=0.9, $sl=nrr, $ttl=1000, $variance=0.05"
attr name tree_4_3
attr network networks.${name}_u${un}_r${rep}_network
attr processid 7280
attr rep 3
attr repetition 0
attr replication #0
attr resultdir results
attr runnumber 2
attr seedset 3
attr sl nrr
attr ttl 1000
attr un 00
attr variance 0.05

scalar . 	a 	0.9
scalar . 	fsize 	1
scalar . 	rep 	3
scalar . 	ttl 	1000
scalar . 	un 	00
scalar . 	variance 	0.05
scalar tree_4_3_u00_r3_network.content_distribution 	repo-0 	0
scalar tree_4_3_u00_r3_network.content_distribution 	client-0 	13
scalar tree_4_3_u00_r3_network.content_distribution 	client-1 	14
scalar tree_4_3_u00_r3_network.content_distribution 	client-2 	15
scalar tree_4_3_u00_r3_network.content_distribution 	client-3 	16
scalar tree_4_3_u00_r3_network.content_distribution 	client-4 	17
scalar tree_4_3_u00_r3_network.content_distribution 	client-5 	18
scalar tree_4_3_u00_r3_network.content_distribution 	client-6 	19
scalar tree_4_3_u00_r3_network.content_distribution 	client-7 	20
scalar tree_4_3_u00_r3_network.content_distribution 	client-8 	21
scalar tree_4_3_u00_r3_network.content_distribution 	client-9 	22
scalar tree_4_3_u00_r3_network.content_distribution 	client-10 	23
scalar tree_4_3_u00_r3_network.content_distribution 	client-11 	24
scalar tree_4_3_u00_r3_network.content_distribution 	client-12 	25
scalar tree_4_3_u00_r3_network.content_distribution 	client-13 	26
scalar tree_4_3_u00_r3_network.content_distribution 	client-14 	27
scalar tree_4_3_u00_r3_network.content_distribution 	client-15 	28
scalar tree_4_3_u00_r3_network.content_distribution 	client-16 	29
scalar tree_4_3_u00_r3_network.content_distribution 	client-17 	30
scalar tree_4_3_u00_r3_network.content_distribution 	client-18 	31
scalar tree_4_3_u00_r3_network.content_distribution 	client-19 	32
scalar tree_4_3_u00_r3_network.content_distribution 	client-20 	33
scalar tree_4_3_u00_r3_network.content_distribution 	client-21 	34
scalar tree_4_3_u00_r3_network.content_distribution 	client-22 	35
scalar tree_4_3_u00_r3_network.content_distribution 	client-23 	36
scalar tree_4_3_u00_r3_network.content_distribution 	client-24 	37
scalar tree_4_3_u00_r3_network.content_distribution 	client-25 	38
scalar tree_4_3_u00_r3_network.content_distribution 	client-26 	39
scalar tree_4_3_u00_r3_network.content_distribution 	repo-0_card 	100000
scalar tree_4_3_u00_r3_network.content_distribution 	repo-0_price 	0
scalar tree_4_3_u00_r3_network.statistics 	stabilization_time 	1034.3
scalar tree_4_3_u00_r3_network.statistics 	p_hit 	0.21321495451197
scalar tree_4_3_u00_r3_network.statistics 	interests 	25307.25
scalar tree_4_3_u00_r3_network.statistics 	data 	17208.65
scalar tree_4_3_u00_r3_network.statistics 	hdistance 	2.7410010207223
scalar tree_4_3_u00_r3_network.statistics 	avg_time 	0.004249935281
scalar tree_4_3_u00_r3_network.statistics 	downloads 	323935
scalar tree_4_3_u00_r3_network.statistics 	total_cost 	0
scalar tree_4_3_u00_r3_network.statistics 	total_replicas 	100000
scalar tree_4_3_u00_r3_network.statistics 	inner_hit 	0.3839844413231
scalar tree_4_3_u00_r3_network.node[0].core_layer 	interests[0] 	202488
scalar tree_4_3_u00_r3_network.node[0].core_layer 	repo_load[0] 	199549
scalar tree_4_3_u00_r3_network.node[0].core_layer 	data[0] 	0
scalar tree_4_3_u00_r3_network.node[0].core_layer 	repo_int[0] 	199549
scalar tree_4_3_u00_r3_network.node[0].content_store 	p_hit[0] 	0.014514440361898
scalar tree_4_3_u00_r3_network.node[0].content_store 	hits[0] 	2939
scalar tree_4_3_u00_r3_network.node[0].content_store 	misses[0] 	199549
scalar tree_4_3_u00_r3_network.node[0].content_store 	decision_yes[0] 	3112
scalar tree_4_3_u00_r3_network.node[0].content_store 	decision_no[0] 	196437
scalar tree_4_3_u00_r3_network.node[0].content_store 	decision_ratio[0] 	0.015595167101815
scalar tree_4_3_u00_r3_network.node[1].core_layer 	interests[1] 	73526
scalar tree_4_3_u00_r3_network.node[1].core_layer 	data[1] 	71668
scalar tree_4_3_u00_r3_network.node[1].content_store 	p_hit[1] 	0.025242771264587
scalar tree_4_3_u00_r3_network.node[1].content_store 	hits[1] 	1856
scalar tree_4_3_u00_r3_network.node[1].content_store 	misses[1] 	71670
scalar tree_4_3_u00_r3_network.node[1].content_store 	decision_yes[1] 	810
scalar tree_4_3_u00_r3_network.node[1].content_store 	decision_no[1] 	70858
scalar tree_4_3_u00_r3_network.node[1].content_store 	decision_ratio[1] 	0.011302115309483
scalar tree_4_3_u00_r3_network.node[2].core_layer 	interests[2] 	73505
scalar tree_4_3_u00_r3_network.node[2].core_layer 	data[2] 	71822
scalar tree_4_3_u00_r3_network.node[2].content_store 	p_hit[2] 	0.022869192571934
scalar tree_4_3_u00_r3_network.node[2].content_store 	hits[2] 	1681
scalar tree_4_3_u00_r3_network.node[2].content_store 	misses[2] 	71824
scalar tree_4_3_u00_r3_network.node[2].content_store 	decision_yes[2] 	843
scalar tree_4_3_u00_r3_network.node[2].content_store 	decision_no[2] 	70979
scalar tree_4_3_u00_r3_network.node[2].content_store 	decision_ratio[2] 	0.011737350672496
scalar tree_4_3_u00_r3_network.node[3].core_layer 	interests[3] 	73745
scalar tree_4_3_u00_r3_network.node[3].core_layer 	data[3] 	71889
scalar tree_4_3_u00_r3_network.node[3].content_store 	p_hit[3] 	0.025167807986982
scalar tree_4_3_u00_r3_network.node[3].content_store 	hits[3] 	1856
scalar tree_4_3_u00_r3_network.node[3].content_store 	misses[3] 	71889
scalar tree_4_3_u00_r3_network.node[3].content_store 	decision_yes[3] 	834
scalar tree_4_3_u00_r3_network.node[3].content_store 	decision_no[3] 	71055
scalar tree_4_3_u00_r3_network.node[3].content_store 	decision_ratio[3] 	0.011601218545257
scalar tree_4_3_u00_r3_network.node[4].core_layer 	interests[4] 	27960
scalar tree_4_3_u00_r3_network.node[4].core_layer 	data[4] 	25871
scalar tree_4_3_u00_r3_network.node[4].content_store 	p_hit[4] 	0.074713876967096
scalar tree_4_3_u00_r3_network.node[4].content_store 	hits[4] 	2089
scalar tree_4_3_u00_r3_network.node[4].content_store 	misses[4] 	25871
scalar tree_4_3_u00_r3_network.node[4].content_store 	decision_yes[4] 	374
scalar tree_4_3_u00_r3_network.node[4].content_store 	decision_no[4] 	25497
scalar tree_4_3_u00_r3_network.node[4].content_store 	decision_ratio[4] 	0.014456341076881
scalar tree_4_3_u00_r3_network.node[5].core_layer 	interests[5] 	27974
scalar tree_4_3_u00_r3_network.node[5].core_layer 	data[5] 	25823
scalar tree_4_3_u00_r3_network.node[5].content_store 	p_hit[5] 	0.076857081575749
scalar tree_4_3_u00_r3_network.node[5].content_store 	hits[5] 	2150
scalar tree_4_3_u00_r3_network.node[5].content_store 	misses[5] 	25824
scalar tree_4_3_u00_r3_network.node[5].content_store 	decision_yes[5] 	376
scalar tree_4_3_u00_r3_network.node[5].content_store 	decision_no[5] 	25447
scalar tree_4_3_u00_r3_network.node[5].content_store 	decision_ratio[5] 	0.014560662974867
scalar tree_4_3_u00_r3_network.node[6].core_layer 	interests[6] 	28178
scalar tree_4_3_u00_r3_network.node[6].core_layer 	data[6] 	25877
scalar tree_4_3_u00_r3_network.node[6].content_store 	p_hit[6] 	0.081588473277025
scalar tree_4_3_u00_r3_network.node[6].content_store 	hits[6] 	2299
scalar tree_4_3_u00_r3_network.node[6].content_store 	misses[6] 	25879
scalar tree_4_3_u00_r3_network.node[6].content_store 	decision_yes[6] 	336
scalar tree_4_3_u00_r3_network.node[6].content_store 	decision_no[6] 	25541
scalar tree_4_3_u00_r3_network.node[6].content_store 	decision_ratio[6] 	0.012984503613247
scalar tree_4_3_u00_r3_network.node[7].core_layer 	interests[7] 	28274
scalar tree_4_3_u00_r3_network.node[7].core_layer 	data[7] 	26046
scalar tree_4_3_u00_r3_network.node[7].content_store 	p_hit[7] 	0.078800311240008
scalar tree_4_3_u00_r3_network.node[7].content_store 	hits[7] 	2228
scalar tree_4_3_u00_r3_network.node[7].content_store 	misses[7] 	26046
scalar tree_4_3_u00_r3_network.node[7].content_store 	decision_yes[7] 	341
scalar tree_4_3_u00_r3_network.node[7].content_store 	decision_no[7] 	25705
scalar tree_4_3_u00_r3_network.node[7].content_store 	decision_ratio[7] 	0.01309222145435
scalar tree_4_3_u00_r3_network.node[8].core_layer 	interests[8] 	27984
scalar tree_4_3_u00_r3_network.node[8].core_layer 	data[8] 	25900
scalar tree_4_3_u00_r3_network.node[8].content_store 	p_hit[8] 	0.074435391652373
scalar tree_4_3_u00_r3_network.node[8].content_store 	hits[8] 	2083
scalar tree_4_3_u00_r3_network.node[8].content_store 	misses[8] 	25901
scalar tree_4_3_u00_r3_network.node[8].content_store 	decision_yes[8] 	364
scalar tree_4_3_u00_r3_network.node[8].content_store 	decision_no[8] 	25536
scalar tree_4_3_u00_r3_network.node[8].content_store 	decision_ratio[8] 	0.014054054054054
scalar tree_4_3_u00_r3_network.node[9].core_layer 	interests[9] 	28164
scalar tree_4_3_u00_r3_network.node[9].core_layer 	data[9] 	25883
scalar tree_4_3_u00_r3_network.node[9].content_store 	p_hit[9] 	0.080989916205085
scalar tree_4_3_u00_r3_network.node[9].content_store 	hits[9] 	2281
scalar tree_4_3_u00_r3_network.node[9].content_store 	misses[9] 	25883
scalar tree_4_3_u00_r3_network.node[9].content_store 	decision_yes[9] 	364
scalar tree_4_3_u00_r3_network.node[9].content_store 	decision_no[9] 	25519
scalar tree_4_3_u00_r3_network.node[9].content_store 	decision_ratio[9] 	0.014063284781517
scalar tree_4_3_u00_r3_network.node[10].core_layer 	interests[10] 	27857
scalar tree_4_3_u00_r3_network.node[10].core_layer 	data[10] 	25703
scalar tree_4_3_u00_r3_network.node[10].content_store 	p_hit[10] 	0.07732347345371
scalar tree_4_3_u00_r3_network.node[10].content_store 	hits[10] 	2154
scalar tree_4_3_u00_r3_network.node[10].content_store 	misses[10] 	25703
scalar tree_4_3_u00_r3_network.node[10].content_store 	decision_yes[10] 	365
scalar tree_4_3_u00_r3_network.node[10].content_store 	decision_no[10] 	25338
scalar tree_4_3_u00_r3_network.node[10].content_store 	decision_ratio[10] 	0.014200676963779
scalar tree_4_3_u00_r3_network.node[11].core_layer 	interests[11] 	28082
scalar tree_4_3_u00_r3_network.node[11].core_layer 	data[11] 	25931
scalar tree_4_3_u00_r3_network.node[11].content_store 	p_hit[11] 	0.076597108468058
scalar tree_4_3_u00_r3_network.node[11].content_store 	hits[11] 	2151
scalar tree_4_3_u00_r3_network.node[11].content_store 	misses[11] 	25931
scalar tree_4_3_u00_r3_network.node[11].content_store 	decision_yes[11] 	362
scalar tree_4_3_u00_r3_network.node[11].content_store 	decision_no[11] 	25569
scalar tree_4_3_u00_r3_network.node[11].content_store 	decision_ratio[11] 	0.013960124946975
scalar tree_4_3_u00_r3_network.node[12].core_layer 	interests[12] 	28270
scalar tree_4_3_u00_r3_network.node[12].core_layer 	data[12] 	26084
scalar tree_4_3_u00_r3_network.node[12].content_store 	p_hit[12] 	0.077325787053414
scalar tree_4_3_u00_r3_network.node[12].content_store 	hits[12] 	2186
scalar tree_4_3_u00_r3_network.node[12].content_store 	misses[12] 	26084
scalar tree_4_3_u00_r3_network.node[12].content_store 	decision_yes[12] 	420
scalar tree_4_3_u00_r3_network.node[12].content_store 	decision_no[12] 	25664
scalar tree_4_3_u00_r3_network.node[12].content_store 	decision_ratio[12] 	0.016101824873486
scalar tree_4_3_u00_r3_network.node[13].core_layer 	interests[13] 	12411
scalar tree_4_3_u00_r3_network.node[13].core_layer 	data[13] 	8865
scalar tree_4_3_u00_r3_network.node[13].content_store 	p_hit[13] 	0.28571428571429
scalar tree_4_3_u00_r3_network.node[13].content_store 	hits[13] 	3546
scalar tree_4_3_u00_r3_network.node[13].content_store 	misses[13] 	8865
scalar tree_4_3_u00_r3_network.node[13].content_store 	decision_yes[13] 	114
scalar tree_4_3_u00_r3_network.node[13].content_store 	decision_no[13] 	8751
scalar tree_4_3_u00_r3_network.node[13].content_store 	decision_ratio[13] 	0.012859560067682
scalar tree_4_3_u00_r3_network.node[14].core_layer 	interests[14] 	12461
scalar tree_4_3_u00_r3_network.node[14].core_layer 	data[14] 	8891
scalar tree_4_3_u00_r3_network.node[14].content_store 	p_hit[14] 	0.28649386084584
scalar tree_4_3_u00_r3_network.node[14].content_store 	hits[14] 	3570
scalar tree_4_3_u00_r3_network.node[14].content_store 	misses[14] 	8891
scalar tree_4_3_u00_r3_network.node[14].content_store 	decision_yes[14] 	113
scalar tree_4_3_u00_r3_network.node[14].content_store 	decision_no[14] 	8778
scalar tree_4_3_u00_r3_network.node[14].content_store 	decision_ratio[14] 	0.012709481498144
scalar tree_4_3_u00_r3_network.node[15].core_layer 	interests[15] 	12495
scalar tree_4_3_u00_r3_network.node[15].core_layer 	data[15] 	8856
scalar tree_4_3_u00_r3_network.node[15].content_store 	p_hit[15] 	0.29123649459784
scalar tree_4_3_u00_r3_network.node[15].content_store 	hits[15] 	3639
scalar tree_4_3_u00_r3_network.node[15].content_store 	misses[15] 	8856
scalar tree_4_3_u00_r3_network.node[15].content_store 	decision_yes[15] 	132
scalar tree_4_3_u00_r3_network.node[15].content_store 	decision_no[15] 	8724
scalar tree_4_3_u00_r3_network.node[15].content_store 	decision_ratio[15] 	0.014905149051491
scalar tree_4_3_u00_r3_network.node[16].core_layer 	interests[16] 	12491
scalar tree_4_3_u00_r3_network.node[16].core_layer 	data[16] 	8816
scalar tree_4_3_u00_r3_network.node[16].content_store 	p_hit[16] 	0.29421183251941
scalar tree_4_3_u00_r3_network.node[16].content_store 	hits[16] 	3675
scalar tree_4_3_u00_r3_network.node[16].content_store 	misses[16] 	8816
scalar tree_4_3_u00_r3_network.node[16].content_store 	decision_yes[16] 	121
scalar tree_4_3_u00_r3_network.node[16].content_store 	decision_no[16] 	8695
scalar tree_4_3_u00_r3_network.node[16].content_store 	decision_ratio[16] 	0.013725045372051
scalar tree_4_3_u00_r3_network.node[17].core_layer 	interests[17] 	12319
scalar tree_4_3_u00_r3_network.node[17].core_layer 	data[17] 	8847
scalar tree_4_3_u00_r3_network.node[17].content_store 	p_hit[17] 	0.28184105852748
scalar tree_4_3_u00_r3_network.node[17].content_store 	hits[17] 	3472
scalar tree_4_3_u00_r3_network.node[17].content_store 	misses[17] 	8847
scalar tree_4_3_u00_r3_network.node[17].content_store 	decision_yes[17] 	106
scalar tree_4_3_u00_r3_network.node[17].content_store 	decision_no[17] 	8741
scalar tree_4_3_u00_r3_network.node[17].content_store 	decision_ratio[17] 	0.011981462642704
scalar tree_4_3_u00_r3_network.node[18].core_layer 	interests[18] 	12460
scalar tree_4_3_u00_r3_network.node[18].core_layer 	data[18] 	8918
scalar tree_4_3_u00_r3_network.node[18].content_store 	p_hit[18] 	0.28418940609952
scalar tree_4_3_u00_r3_network.node[18].content_store 	hits[18] 	3541
scalar tree_4_3_u00_r3_network.node[18].content_store 	misses[18] 	8919
scalar tree_4_3_u00_r3_network.node[18].content_store 	decision_yes[18] 	116
scalar tree_4_3_u00_r3_network.node[18].content_store 	decision_no[18] 	8802
scalar tree_4_3_u00_r3_network.node[18].content_store 	decision_ratio[18] 	0.013007400762503
scalar tree_4_3_u00_r3_network.node[19].core_layer 	interests[19] 	12272
scalar tree_4_3_u00_r3_network.node[19].core_layer 	data[19] 	8707
scalar tree_4_3_u00_r3_network.node[19].content_store 	p_hit[19] 	0.29041720990874
scalar tree_4_3_u00_r3_network.node[19].content_store 	hits[19] 	3564
scalar tree_4_3_u00_r3_network.node[19].content_store 	misses[19] 	8708
scalar tree_4_3_u00_r3_network.node[19].content_store 	decision_yes[19] 	113
scalar tree_4_3_u00_r3_network.node[19].content_store 	decision_no[19] 	8594
scalar tree_4_3_u00_r3_network.node[19].content_store 	decision_ratio[19] 	0.012978063626967
scalar tree_4_3_u00_r3_network.node[20].core_layer 	interests[20] 	12580
scalar tree_4_3_u00_r3_network.node[20].core_layer 	data[20] 	9016
scalar tree_4_3_u00_r3_network.node[20].content_store 	p_hit[20] 	0.28322734499205
scalar tree_4_3_u00_r3_network.node[20].content_store 	hits[20] 	3563
scalar tree_4_3_u00_r3_network.node[20].content_store 	misses[20] 	9017
scalar tree_4_3_u00_r3_network.node[20].content_store 	decision_yes[20] 	113
scalar tree_4_3_u00_r3_network.node[20].content_store 	decision_no[20] 	8903
scalar tree_4_3_u00_r3_network.node[20].content_store 	decision_ratio[20] 	0.012533274179237
scalar tree_4_3_u00_r3_network.node[21].core_layer 	interests[21] 	12338
scalar tree_4_3_u00_r3_network.node[21].core_layer 	data[21] 	8947
scalar tree_4_3_u00_r3_network.node[21].content_store 	p_hit[21] 	0.27484195169395
scalar tree_4_3_u00_r3_network.node[21].content_store 	hits[21] 	3391
scalar tree_4_3_u00_r3_network.node[21].content_store 	misses[21] 	8947
scalar tree_4_3_u00_r3_network.node[21].content_store 	decision_yes[21] 	117
scalar tree_4_3_u00_r3_network.node[21].content_store 	decision_no[21] 	8830
scalar tree_4_3_u00_r3_network.node[21].content_store 	decision_ratio[21] 	0.013077009053314
scalar tree_4_3_u00_r3_network.node[22].core_layer 	interests[22] 	12576
scalar tree_4_3_u00_r3_network.node[22].core_layer 	data[22] 	8875
scalar tree_4_3_u00_r3_network.node[22].content_store 	p_hit[22] 	0.29429071246819
scalar tree_4_3_u00_r3_network.node[22].content_store 	hits[22] 	3701
scalar tree_4_3_u00_r3_network.node[22].content_store 	misses[22] 	8875
scalar tree_4_3_u00_r3_network.node[22].content_store 	decision_yes[22] 	114
scalar tree_4_3_u00_r3_network.node[22].content_store 	decision_no[22] 	8761
scalar tree_4_3_u00_r3_network.node[22].content_store 	decision_ratio[22] 	0.012845070422535
scalar tree_4_3_u00_r3_network.node[23].core_layer 	interests[23] 	12711
scalar tree_4_3_u00_r3_network.node[23].core_layer 	data[23] 	9082
scalar tree_4_3_u00_r3_network.node[23].content_store 	p_hit[23] 	0.28550074738416
scalar tree_4_3_u00_r3_network.node[23].content_store 	hits[23] 	3629
scalar tree_4_3_u00_r3_network.node[23].content_store 	misses[23] 	9082
scalar tree_4_3_u00_r3_network.node[23].content_store 	decision_yes[23] 	105
scalar tree_4_3_u00_r3_network.node[23].content_store 	decision_no[23] 	8977
scalar tree_4_3_u00_r3_network.node[23].content_store 	decision_ratio[23] 	0.011561330103501
scalar tree_4_3_u00_r3_network.node[24].core_layer 	interests[24] 	12386
scalar tree_4_3_u00_r3_network.node[24].core_layer 	data[24] 	8864
scalar tree_4_3_u00_r3_network.node[24].content_store 	p_hit[24] 	0.28435330211529
scalar tree_4_3_u00_r3_network.node[24].content_store 	hits[24] 	3522
scalar tree_4_3_u00_r3_network.node[24].content_store 	misses[24] 	8864
scalar tree_4_3_u00_r3_network.node[24].content_store 	decision_yes[24] 	120
scalar tree_4_3_u00_r3_network.node[24].content_store 	decision_no[24] 	8744
scalar tree_4_3_u00_r3_network.node[24].content_store 	decision_ratio[24] 	0.013537906137184
scalar tree_4_3_u00_r3_network.node[25].core_layer 	interests[25] 	12464
scalar tree_4_3_u00_r3_network.node[25].core_layer 	data[25] 	8902
scalar tree_4_3_u00_r3_network.node[25].content_store 	p_hit[25] 	0.28578305519897
scalar tree_4_3_u00_r3_network.node[25].content_store 	hits[25] 	3562
scalar tree_4_3_u00_r3_network.node[25].content_store 	misses[25] 	8902
scalar tree_4_3_u00_r3_network.node[25].content_store 	decision_yes[25] 	114
scalar tree_4_3_u00_r3_network.node[25].content_store 	decision_no[25] 	8788
scalar tree_4_3_u00_r3_network.node[25].content_store 	decision_ratio[25] 	0.012806110986295
scalar tree_4_3_u00_r3_network.node[26].core_layer 	interests[26] 	12335
scalar tree_4_3_u00_r3_network.node[26].core_layer 	data[26] 	8838
scalar tree_4_3_u00_r3_network.node[26].content_store 	p_hit[26] 	0.28350222942846
scalar tree_4_3_u00_r3_network.node[26].content_store 	hits[26] 	3497
scalar tree_4_3_u00_r3_network.node[26].content_store 	misses[26] 	8838
scalar tree_4_3_u00_r3_network.node[26].content_store 	decision_yes[26] 	139
scalar tree_4_3_u00_r3_network.node[26].content_store 	decision_no[26] 	8699
scalar tree_4_3_u00_r3_network.node[26].content_store 	decision_ratio[26] 	0.015727540167459
scalar tree_4_3_u00_r3_network.node[27].core_layer 	interests[27] 	12543
scalar tree_4_3_u00_r3_network.node[27].core_layer 	data[27] 	8927
scalar tree_4_3_u00_r3_network.node[27].content_store 	p_hit[27] 	0.28828828828829
scalar tree_4_3_u00_r3_network.node[27].content_store 	hits[27] 	3616
scalar tree_4_3_u00_r3_network.node[27].content_store 	misses[27] 	8927
scalar tree_4_3_u00_r3_network.node[27].content_store 	decision_yes[27] 	125
scalar tree_4_3_u00_r3_network.node[27].content_store 	decision_no[27] 	8802
scalar tree_4_3_u00_r3_network.node[27].content_store 	decision_ratio[27] 	0.01400246443374
scalar tree_4_3_u00_r3_network.node[28].core_layer 	interests[28] 	12586
scalar tree_4_3_u00_r3_network.node[28].core_layer 	data[28] 	9065
scalar tree_4_3_u00_r3_network.node[28].content_store 	p_hit[28] 	0.2797552836485
scalar tree_4_3_u00_r3_network.node[28].content_store 	hits[28] 	3521
scalar tree_4_3_u00_r3_network.node[28].content_store 	misses[28] 	9065
scalar tree_4_3_u00_r3_network.node[28].content_store 	decision_yes[28] 	127
scalar tree_4_3_u00_r3_network.node[28].content_store 	decision_no[28] 	8938
scalar tree_4_3_u00_r3_network.node[28].content_store 	decision_ratio[28] 	0.014009928295643
scalar tree_4_3_u00_r3_network.node[29].core_layer 	interests[29] 	12404
scalar tree_4_3_u00_r3_network.node[29].core_layer 	data[29] 	8824
scalar tree_4_3_u00_r3_network.node[29].content_store 	p_hit[29] 	0.28861657529829
scalar tree_4_3_u00_r3_network.node[29].content_store 	hits[29] 	3580
scalar tree_4_3_u00_r3_network.node[29].content_store 	misses[29] 	8824
scalar tree_4_3_u00_r3_network.node[29].content_store 	decision_yes[29] 	120
scalar tree_4_3_u00_r3_network.node[29].content_store 	decision_no[29] 	8704
scalar tree_4_3_u00_r3_network.node[29].content_store 	decision_ratio[29] 	0.013599274705349
scalar tree_4_3_u00_r3_network.node[30].core_layer 	interests[30] 	12327
scalar tree_4_3_u00_r3_network.node[30].core_layer 	data[30] 	8777
scalar tree_4_3_u00_r3_network.node[30].content_store 	p_hit[30] 	0.28798572239799
scalar tree_4_3_u00_r3_network.node[30].content_store 	hits[30] 	3550
scalar tree_4_3_u00_r3_network.node[30].content_store 	misses[30] 	8777
scalar tree_4_3_u00_r3_network.node[30].content_store 	decision_yes[30] 	118
scalar tree_4_3_u00_r3_network.node[30].content_store 	decision_no[30] 	8659
scalar tree_4_3_u00_r3_network.node[30].content_store 	decision_ratio[30] 	0.013444229235502
scalar tree_4_3_u00_r3_network.node[31].core_layer 	interests[31] 	12321
scalar tree_4_3_u00_r3_network.node[31].core_layer 	data[31] 	8652
scalar tree_4_3_u00_r3_network.node[31].content_store 	p_hit[31] 	0.29778427075724
scalar tree_4_3_u00_r3_network.node[31].content_store 	hits[31] 	3669
scalar tree_4_3_u00_r3_network.node[31].content_store 	misses[31] 	8652
scalar tree_4_3_u00_r3_network.node[31].content_store 	decision_yes[31] 	114
scalar tree_4_3_u00_r3_network.node[31].content_store 	decision_no[31] 	8538
scalar tree_4_3_u00_r3_network.node[31].content_store 	decision_ratio[31] 	0.013176144244105
scalar tree_4_3_u00_r3_network.node[32].core_layer 	interests[32] 	12568
scalar tree_4_3_u00_r3_network.node[32].core_layer 	data[32] 	8940
scalar tree_4_3_u00_r3_network.node[32].content_store 	p_hit[32] 	0.28866963717377
scalar tree_4_3_u00_r3_network.node[32].content_store 	hits[32] 	3628
scalar tree_4_3_u00_r3_network.node[32].content_store 	misses[32] 	8940
scalar tree_4_3_u00_r3_network.node[32].content_store 	decision_yes[32] 	125
scalar tree_4_3_u00_r3_network.node[32].content_store 	decision_no[32] 	8815
scalar tree_4_3_u00_r3_network.node[32].content_store 	decision_ratio[32] 	0.013982102908277
scalar tree_4_3_u00_r3_network.node[33].core_layer 	interests[33] 	12269
scalar tree_4_3_u00_r3_network.node[33].core_layer 	data[33] 	8837
scalar tree_4_3_u00_r3_network.node[33].content_store 	p_hit[33] 	0.27972939929905
scalar tree_4_3_u00_r3_network.node[33].content_store 	hits[33] 	3432
scalar tree_4_3_u00_r3_network.node[33].content_store 	misses[33] 	8837
scalar tree_4_3_u00_r3_network.node[33].content_store 	decision_yes[33] 	119
scalar tree_4_3_u00_r3_network.node[33].content_store 	decision_no[33] 	8718
scalar tree_4_3_u00_r3_network.node[33].content_store 	decision_ratio[33] 	0.013466108407831
scalar tree_4_3_u00_r3_network.node[34].core_layer 	interests[34] 	12418
scalar tree_4_3_u00_r3_network.node[34].core_layer 	data[34] 	8884
scalar tree_4_3_u00_r3_network.node[34].content_store 	p_hit[34] 	0.28458688999839
scalar tree_4_3_u00_r3_network.node[34].content_store 	hits[34] 	3534
scalar tree_4_3_u00_r3_network.node[34].content_store 	misses[34] 	8884
scalar tree_4_3_u00_r3_network.node[34].content_store 	decision_yes[34] 	96
scalar tree_4_3_u00_r3_network.node[34].content_store 	decision_no[34] 	8788
scalar tree_4_3_u00_r3_network.node[34].content_store 	decision_ratio[34] 	0.010805943268798
scalar tree_4_3_u00_r3_network.node[35].core_layer 	interests[35] 	12523
scalar tree_4_3_u00_r3_network.node[35].core_layer 	data[35] 	8888
scalar tree_4_3_u00_r3_network.node[35].content_store 	p_hit[35] 	0.29026591072427
scalar tree_4_3_u00_r3_network.node[35].content_store 	hits[35] 	3635
scalar tree_4_3_u00_r3_network.node[35].content_store 	misses[35] 	8888
scalar tree_4_3_u00_r3_network.node[35].content_store 	decision_yes[35] 	117
scalar tree_4_3_u00_r3_network.node[35].content_store 	decision_no[35] 	8771
scalar tree_4_3_u00_r3_network.node[35].content_store 	decision_ratio[35] 	0.013163816381638
scalar tree_4_3_u00_r3_network.node[36].core_layer 	interests[36] 	12458
scalar tree_4_3_u00_r3_network.node[36].core_layer 	data[36] 	8853
scalar tree_4_3_u00_r3_network.node[36].content_store 	p_hit[36] 	0.28937229089742
scalar tree_4_3_u00_r3_network.node[36].content_store 	hits[36] 	3605
scalar tree_4_3_u00_r3_network.node[36].content_store 	misses[36] 	8853
scalar tree_4_3_u00_r3_network.node[36].content_store 	decision_yes[36] 	122
scalar tree_4_3_u00_r3_network.node[36].content_store 	decision_no[36] 	8731
scalar tree_4_3_u00_r3_network.node[36].content_store 	decision_ratio[36] 	0.0137806393313
scalar tree_4_3_u00_r3_network.node[37].core_layer 	interests[37] 	12492
scalar tree_4_3_u00_r3_network.node[37].core_layer 	data[37] 	8855
scalar tree_4_3_u00_r3_network.node[37].content_store 	p_hit[37] 	0.29114633365354
scalar tree_4_3_u00_r3_network.node[37].content_store 	hits[37] 	3637
scalar tree_4_3_u00_r3_network.node[37].content_store 	misses[37] 	8855
scalar tree_4_3_u00_r3_network.node[37].content_store 	decision_yes[37] 	106
scalar tree_4_3_u00_r3_network.node[37].content_store 	decision_no[37] 	8749
scalar tree_4_3_u00_r3_network.node[37].content_store 	decision_ratio[37] 	0.011970638057595
scalar tree_4_3_u00_r3_network.node[38].core_layer 	interests[38] 	12535
scalar tree_4_3_u00_r3_network.node[38].core_layer 	data[38] 	8974
scalar tree_4_3_u00_r3_network.node[38].content_store 	p_hit[38] 	0.28408456322298
scalar tree_4_3_u00_r3_network.node[38].content_store 	hits[38] 	3561
scalar tree_4_3_u00_r3_network.node[38].content_store 	misses[38] 	8974
scalar tree_4_3_u00_r3_network.node[38].content_store 	decision_yes[38] 	104
scalar tree_4_3_u00_r3_network.node[38].content_store 	decision_no[38] 	8870
scalar tree_4_3_u00_r3_network.node[38].content_store 	decision_ratio[38] 	0.011589034989971
scalar tree_4_3_u00_r3_network.node[39].core_layer 	interests[39] 	12540
scalar tree_4_3_u00_r3_network.node[39].core_layer 	data[39] 	8949
scalar tree_4_3_u00_r3_network.node[39].content_store 	p_hit[39] 	0.28628389154705
scalar tree_4_3_u00_r3_network.node[39].content_store 	hits[39] 	3590
scalar tree_4_3_u00_r3_network.node[39].content_store 	misses[39] 	8950
scalar tree_4_3_u00_r3_network.node[39].content_store 	decision_yes[39] 	124
scalar tree_4_3_u00_r3_network.node[39].content_store 	decision_no[39] 	8825
scalar tree_4_3_u00_r3_network.node[39].content_store 	decision_ratio[39] 	0.013856296792938
scalar tree_4_3_u00_r3_network.client[13] 	hdistance[13] 	2.7422887235643
scalar tree_4_3_u00_r3_network.client[13] 	downloads[13] 	11963
scalar tree_4_3_u00_r3_network.client[13] 	avg_time[13] 	0.004254782609
scalar tree_4_3_u00_r3_network.client[14] 	hdistance[14] 	2.7485174977032
scalar tree_4_3_u00_r3_network.client[14] 	downloads[14] 	11973
scalar tree_4_3_u00_r3_network.client[14] 	avg_time[14] 	0.004256240208
scalar tree_4_3_u00_r3_network.client[15] 	hdistance[15] 	2.7244855452803
scalar tree_4_3_u00_r3_network.client[15] 	downloads[15] 	12003
scalar tree_4_3_u00_r3_network.client[15] 	avg_time[15] 	0.004223941022
scalar tree_4_3_u00_r3_network.client[16] 	hdistance[16] 	2.7130752616714
scalar tree_4_3_u00_r3_network.client[16] 	downloads[16] 	12038
scalar tree_4_3_u00_r3_network.client[16] 	avg_time[16] 	0.004209167908
scalar tree_4_3_u00_r3_network.client[17] 	hdistance[17] 	2.7499368314663
scalar tree_4_3_u00_r3_network.client[17] 	downloads[17] 	11873
scalar tree_4_3_u00_r3_network.client[17] 	avg_time[17] 	0.004267663184
scalar tree_4_3_u00_r3_network.client[18] 	hdistance[18] 	2.7480820547031
scalar tree_4_3_u00_r3_network.client[18] 	downloads[18] 	11992
scalar tree_4_3_u00_r3_network.client[18] 	avg_time[18] 	0.004262781965
scalar tree_4_3_u00_r3_network.client[19] 	hdistance[19] 	2.7469675120875
scalar tree_4_3_u00_r3_network.client[19] 	downloads[19] 	11789
scalar tree_4_3_u00_r3_network.client[19] 	avg_time[19] 	0.004255489445
scalar tree_4_3_u00_r3_network.client[20] 	hdistance[20] 	2.7333880229696
scalar tree_4_3_u00_r3_network.client[20] 	downloads[20] 	12190
scalar tree_4_3_u00_r3_network.client[20] 	avg_time[20] 	0.00423477956
scalar tree_4_3_u00_r3_network.client[21] 	hdistance[21] 	2.7718300434928
scalar tree_4_3_u00_r3_network.client[21] 	downloads[21] 	11956
scalar tree_4_3_u00_r3_network.client[21] 	avg_time[21] 	0.004298591875
scalar tree_4_3_u00_r3_network.client[22] 	hdistance[22] 	2.7165452136469
scalar tree_4_3_u00_r3_network.client[22] 	downloads[22] 	12076
scalar tree_4_3_u00_r3_network.client[22] 	avg_time[22] 	0.00421066278
scalar tree_4_3_u00_r3_network.client[23] 	hdistance[23] 	2.7529421379536
scalar tree_4_3_u00_r3_network.client[23] 	downloads[23] 	12236
scalar tree_4_3_u00_r3_network.client[23] 	avg_time[23] 	0.004266423884
scalar tree_4_3_u00_r3_network.client[24] 	hdistance[24] 	2.7491607922121
scalar tree_4_3_u00_r3_network.client[24] 	downloads[24] 	11916
scalar tree_4_3_u00_r3_network.client[24] 	avg_time[24] 	0.0042644351
scalar tree_4_3_u00_r3_network.client[25] 	hdistance[25] 	2.7497291440953
scalar tree_4_3_u00_r3_network.client[25] 	downloads[25] 	11999
scalar tree_4_3_u00_r3_network.client[25] 	avg_time[25] 	0.004262685566
scalar tree_4_3_u00_r3_network.client[26] 	hdistance[26] 	2.7450781580059
scalar tree_4_3_u00_r3_network.client[26] 	downloads[26] 	11835
scalar tree_4_3_u00_r3_network.client[26] 	avg_time[26] 	0.004261931989
scalar tree_4_3_u00_r3_network.client[27] 	hdistance[27] 	2.7473763118441
scalar tree_4_3_u00_r3_network.client[27] 	downloads[27] 	12006
scalar tree_4_3_u00_r3_network.client[27] 	avg_time[27] 	0.004262680023
scalar tree_4_3_u00_r3_network.client[28] 	hdistance[28] 	2.7561915696244
scalar tree_4_3_u00_r3_network.client[28] 	downloads[28] 	12194
scalar tree_4_3_u00_r3_network.client[28] 	avg_time[28] 	0.004275542309
scalar tree_4_3_u00_r3_network.client[29] 	hdistance[29] 	2.7373643932386
scalar tree_4_3_u00_r3_network.client[29] 	downloads[29] 	11891
scalar tree_4_3_u00_r3_network.client[29] 	avg_time[29] 	0.004250438519
scalar tree_4_3_u00_r3_network.client[30] 	hdistance[30] 	2.7379164909321
scalar tree_4_3_u00_r3_network.client[30] 	downloads[30] 	11855
scalar tree_4_3_u00_r3_network.client[30] 	avg_time[30] 	0.004243269935
scalar tree_4_3_u00_r3_network.client[31] 	hdistance[31] 	2.6961738546736
scalar tree_4_3_u00_r3_network.client[31] 	downloads[31] 	11918
scalar tree_4_3_u00_r3_network.client[31] 	avg_time[31] 	0.004178047064
scalar tree_4_3_u00_r3_network.client[32] 	hdistance[32] 	2.7273548493061
scalar tree_4_3_u00_r3_network.client[32] 	downloads[32] 	12177
scalar tree_4_3_u00_r3_network.client[32] 	avg_time[32] 	0.004225668307
scalar tree_4_3_u00_r3_network.client[33] 	hdistance[33] 	2.75486152033
scalar tree_4_3_u00_r3_network.client[33] 	downloads[33] 	11879
scalar tree_4_3_u00_r3_network.client[33] 	avg_time[33] 	0.004273589073
scalar tree_4_3_u00_r3_network.client[34] 	hdistance[34] 	2.7595976529757
scalar tree_4_3_u00_r3_network.client[34] 	downloads[34] 	11930
scalar tree_4_3_u00_r3_network.client[34] 	avg_time[34] 	0.004272922425
scalar tree_4_3_u00_r3_network.client[35] 	hdistance[35] 	2.7244602531227
scalar tree_4_3_u00_r3_network.client[35] 	downloads[35] 	12089
scalar tree_4_3_u00_r3_network.client[35] 	avg_time[35] 	0.004224498617
scalar tree_4_3_u00_r3_network.client[36] 	hdistance[36] 	2.7409452112087
scalar tree_4_3_u00_r3_network.client[36] 	downloads[36] 	11955
scalar tree_4_3_u00_r3_network.client[36] 	avg_time[36] 	0.004252778255
scalar tree_4_3_u00_r3_network.client[37] 	hdistance[37] 	2.7344425956739
scalar tree_4_3_u00_r3_network.client[37] 	downloads[37] 	12020
scalar tree_4_3_u00_r3_network.client[37] 	avg_time[37] 	0.004242592681
scalar tree_4_3_u00_r3_network.client[38] 	hdistance[38] 	2.7442379182156
scalar tree_4_3_u00_r3_network.client[38] 	downloads[38] 	12105
scalar tree_4_3_u00_r3_network.client[38] 	avg_time[38] 	0.004254106875
scalar tree_4_3_u00_r3_network.client[39] 	hdistance[39] 	2.7540779995032
scalar tree_4_3_u00_r3_network.client[39] 	downloads[39] 	12077
scalar tree_4_3_u00_r3_network.client[39] 	avg_time[39] 	0.004262541414
