version 2
run General-22-20160818-18:31:31-19481
attr a 0.9
attr cd lce
attr configname General
attr cr lru
attr datetime 20160818-18:31:31
attr experiment General
attr fsize 1
attr inifile hw5115/scenario_A/EdgeCoop.ini
attr iterationvars "$name=tree_4_3, $un=01, $rep=3, $scenario=Edge, $cd=lce, $cr=lru, $fsize=1, $a=0.9, $sl=nrr, $ttl=1000, $variance=0.05"
attr iterationvars2 "$name=tree_4_3, $un=01, $rep=3, $scenario=Edge, $cd=lce, $cr=lru, $fsize=1, $a=0.9, $sl=nrr, $ttl=1000, $variance=0.05, $repetition=0"
attr measurement "$name=tree_4_3, $un=01, $rep=3, $scenario=Edge, $cd=lce, $cr=lru, $fsize=1, $a=0.9, $sl=nrr, $ttl=1000, $variance=0.05"
attr name tree_4_3
attr network networks.${name}_u${un}_r${rep}_network
attr processid 19481
attr rep 3
attr repetition 0
attr replication #0
attr resultdir results
attr runnumber 22
attr scenario Edge
attr seedset 3
attr sl nrr
attr ttl 1000
attr un 01
attr variance 0.05

scalar . 	a 	0.9
scalar . 	fsize 	1
scalar . 	rep 	3
scalar . 	ttl 	1000
scalar . 	un 	01
scalar . 	variance 	0.05
scalar tree_4_3_u01_r3_network.content_distribution 	repo-0 	0
scalar tree_4_3_u01_r3_network.content_distribution 	client-0 	13
scalar tree_4_3_u01_r3_network.content_distribution 	client-1 	14
scalar tree_4_3_u01_r3_network.content_distribution 	client-2 	15
scalar tree_4_3_u01_r3_network.content_distribution 	client-3 	16
scalar tree_4_3_u01_r3_network.content_distribution 	client-4 	17
scalar tree_4_3_u01_r3_network.content_distribution 	client-5 	18
scalar tree_4_3_u01_r3_network.content_distribution 	client-6 	19
scalar tree_4_3_u01_r3_network.content_distribution 	client-7 	20
scalar tree_4_3_u01_r3_network.content_distribution 	client-8 	21
scalar tree_4_3_u01_r3_network.content_distribution 	client-9 	22
scalar tree_4_3_u01_r3_network.content_distribution 	client-10 	23
scalar tree_4_3_u01_r3_network.content_distribution 	client-11 	24
scalar tree_4_3_u01_r3_network.content_distribution 	client-12 	25
scalar tree_4_3_u01_r3_network.content_distribution 	client-13 	26
scalar tree_4_3_u01_r3_network.content_distribution 	client-14 	27
scalar tree_4_3_u01_r3_network.content_distribution 	client-15 	28
scalar tree_4_3_u01_r3_network.content_distribution 	client-16 	29
scalar tree_4_3_u01_r3_network.content_distribution 	client-17 	30
scalar tree_4_3_u01_r3_network.content_distribution 	client-18 	31
scalar tree_4_3_u01_r3_network.content_distribution 	client-19 	32
scalar tree_4_3_u01_r3_network.content_distribution 	client-20 	33
scalar tree_4_3_u01_r3_network.content_distribution 	client-21 	34
scalar tree_4_3_u01_r3_network.content_distribution 	client-22 	35
scalar tree_4_3_u01_r3_network.content_distribution 	client-23 	36
scalar tree_4_3_u01_r3_network.content_distribution 	client-24 	37
scalar tree_4_3_u01_r3_network.content_distribution 	client-25 	38
scalar tree_4_3_u01_r3_network.content_distribution 	client-26 	39
scalar tree_4_3_u01_r3_network.content_distribution 	repo-0_card 	100000
scalar tree_4_3_u01_r3_network.content_distribution 	repo-0_price 	0
scalar tree_4_3_u01_r3_network.statistics 	stabilization_time 	336.2
scalar tree_4_3_u01_r3_network.statistics 	p_hit 	0.18922260927381
scalar tree_4_3_u01_r3_network.statistics 	interests 	28507.65
scalar tree_4_3_u01_r3_network.statistics 	data 	20391.625
scalar tree_4_3_u01_r3_network.statistics 	hdistance 	3.1850036402825
scalar tree_4_3_u01_r3_network.statistics 	avg_time 	0.00502490634
scalar tree_4_3_u01_r3_network.statistics 	downloads 	324621
scalar tree_4_3_u01_r3_network.statistics 	total_cost 	0
scalar tree_4_3_u01_r3_network.statistics 	total_replicas 	100000
scalar tree_4_3_u01_r3_network.statistics 	inner_hit 	0.3274187437042
scalar tree_4_3_u01_r3_network.node[0].core_layer 	interests[0] 	218334
scalar tree_4_3_u01_r3_network.node[0].core_layer 	repo_load[0] 	218334
scalar tree_4_3_u01_r3_network.node[0].core_layer 	data[0] 	0
scalar tree_4_3_u01_r3_network.node[0].core_layer 	repo_int[0] 	218334
scalar tree_4_3_u01_r3_network.node[0].content_store 	p_hit[0] 	0
scalar tree_4_3_u01_r3_network.node[0].content_store 	hits[0] 	0
scalar tree_4_3_u01_r3_network.node[0].content_store 	misses[0] 	218334
scalar tree_4_3_u01_r3_network.node[0].content_store 	decision_yes[0] 	0
scalar tree_4_3_u01_r3_network.node[0].content_store 	decision_no[0] 	218334
scalar tree_4_3_u01_r3_network.node[0].content_store 	decision_ratio[0] 	0
scalar tree_4_3_u01_r3_network.node[1].core_layer 	interests[1] 	83032
scalar tree_4_3_u01_r3_network.node[1].core_layer 	data[1] 	83028
scalar tree_4_3_u01_r3_network.node[1].content_store 	p_hit[1] 	0
scalar tree_4_3_u01_r3_network.node[1].content_store 	hits[1] 	0
scalar tree_4_3_u01_r3_network.node[1].content_store 	misses[1] 	83032
scalar tree_4_3_u01_r3_network.node[1].content_store 	decision_yes[1] 	0
scalar tree_4_3_u01_r3_network.node[1].content_store 	decision_no[1] 	83020
scalar tree_4_3_u01_r3_network.node[1].content_store 	decision_ratio[1] 	0
scalar tree_4_3_u01_r3_network.node[2].core_layer 	interests[2] 	105249
scalar tree_4_3_u01_r3_network.node[2].core_layer 	data[2] 	105247
scalar tree_4_3_u01_r3_network.node[2].content_store 	p_hit[2] 	0
scalar tree_4_3_u01_r3_network.node[2].content_store 	hits[2] 	0
scalar tree_4_3_u01_r3_network.node[2].content_store 	misses[2] 	105249
scalar tree_4_3_u01_r3_network.node[2].content_store 	decision_yes[2] 	0
scalar tree_4_3_u01_r3_network.node[2].content_store 	decision_no[2] 	105240
scalar tree_4_3_u01_r3_network.node[2].content_store 	decision_ratio[2] 	0
scalar tree_4_3_u01_r3_network.node[3].core_layer 	interests[3] 	57116
scalar tree_4_3_u01_r3_network.node[3].core_layer 	data[3] 	57116
scalar tree_4_3_u01_r3_network.node[3].content_store 	p_hit[3] 	0
scalar tree_4_3_u01_r3_network.node[3].content_store 	hits[3] 	0
scalar tree_4_3_u01_r3_network.node[3].content_store 	misses[3] 	57116
scalar tree_4_3_u01_r3_network.node[3].content_store 	decision_yes[3] 	0
scalar tree_4_3_u01_r3_network.node[3].content_store 	decision_no[3] 	57114
scalar tree_4_3_u01_r3_network.node[3].content_store 	decision_ratio[3] 	0
scalar tree_4_3_u01_r3_network.node[4].core_layer 	interests[4] 	33013
scalar tree_4_3_u01_r3_network.node[4].core_layer 	data[4] 	33010
scalar tree_4_3_u01_r3_network.node[4].content_store 	p_hit[4] 	0
scalar tree_4_3_u01_r3_network.node[4].content_store 	hits[4] 	0
scalar tree_4_3_u01_r3_network.node[4].content_store 	misses[4] 	33013
scalar tree_4_3_u01_r3_network.node[4].content_store 	decision_yes[4] 	0
scalar tree_4_3_u01_r3_network.node[4].content_store 	decision_no[4] 	33005
scalar tree_4_3_u01_r3_network.node[4].content_store 	decision_ratio[4] 	0
scalar tree_4_3_u01_r3_network.node[5].core_layer 	interests[5] 	33144
scalar tree_4_3_u01_r3_network.node[5].core_layer 	data[5] 	33140
scalar tree_4_3_u01_r3_network.node[5].content_store 	p_hit[5] 	0
scalar tree_4_3_u01_r3_network.node[5].content_store 	hits[5] 	0
scalar tree_4_3_u01_r3_network.node[5].content_store 	misses[5] 	33144
scalar tree_4_3_u01_r3_network.node[5].content_store 	decision_yes[5] 	0
scalar tree_4_3_u01_r3_network.node[5].content_store 	decision_no[5] 	33138
scalar tree_4_3_u01_r3_network.node[5].content_store 	decision_ratio[5] 	0
scalar tree_4_3_u01_r3_network.node[6].core_layer 	interests[6] 	32991
scalar tree_4_3_u01_r3_network.node[6].core_layer 	data[6] 	32991
scalar tree_4_3_u01_r3_network.node[6].content_store 	p_hit[6] 	0
scalar tree_4_3_u01_r3_network.node[6].content_store 	hits[6] 	0
scalar tree_4_3_u01_r3_network.node[6].content_store 	misses[6] 	32991
scalar tree_4_3_u01_r3_network.node[6].content_store 	decision_yes[6] 	0
scalar tree_4_3_u01_r3_network.node[6].content_store 	decision_no[6] 	32989
scalar tree_4_3_u01_r3_network.node[6].content_store 	decision_ratio[6] 	0
scalar tree_4_3_u01_r3_network.node[7].core_layer 	interests[7] 	41791
scalar tree_4_3_u01_r3_network.node[7].core_layer 	data[7] 	41789
scalar tree_4_3_u01_r3_network.node[7].content_store 	p_hit[7] 	0
scalar tree_4_3_u01_r3_network.node[7].content_store 	hits[7] 	0
scalar tree_4_3_u01_r3_network.node[7].content_store 	misses[7] 	41791
scalar tree_4_3_u01_r3_network.node[7].content_store 	decision_yes[7] 	0
scalar tree_4_3_u01_r3_network.node[7].content_store 	decision_no[7] 	41785
scalar tree_4_3_u01_r3_network.node[7].content_store 	decision_ratio[7] 	0
scalar tree_4_3_u01_r3_network.node[8].core_layer 	interests[8] 	22780
scalar tree_4_3_u01_r3_network.node[8].core_layer 	data[8] 	22778
scalar tree_4_3_u01_r3_network.node[8].content_store 	p_hit[8] 	0
scalar tree_4_3_u01_r3_network.node[8].content_store 	hits[8] 	0
scalar tree_4_3_u01_r3_network.node[8].content_store 	misses[8] 	22780
scalar tree_4_3_u01_r3_network.node[8].content_store 	decision_yes[8] 	0
scalar tree_4_3_u01_r3_network.node[8].content_store 	decision_no[8] 	22776
scalar tree_4_3_u01_r3_network.node[8].content_store 	decision_ratio[8] 	0
scalar tree_4_3_u01_r3_network.node[9].core_layer 	interests[9] 	33388
scalar tree_4_3_u01_r3_network.node[9].core_layer 	data[9] 	33389
scalar tree_4_3_u01_r3_network.node[9].content_store 	p_hit[9] 	0
scalar tree_4_3_u01_r3_network.node[9].content_store 	hits[9] 	0
scalar tree_4_3_u01_r3_network.node[9].content_store 	misses[9] 	33388
scalar tree_4_3_u01_r3_network.node[9].content_store 	decision_yes[9] 	0
scalar tree_4_3_u01_r3_network.node[9].content_store 	decision_no[9] 	33385
scalar tree_4_3_u01_r3_network.node[9].content_store 	decision_ratio[9] 	0
scalar tree_4_3_u01_r3_network.node[10].core_layer 	interests[10] 	32469
scalar tree_4_3_u01_r3_network.node[10].core_layer 	data[10] 	32468
scalar tree_4_3_u01_r3_network.node[10].content_store 	p_hit[10] 	0
scalar tree_4_3_u01_r3_network.node[10].content_store 	hits[10] 	0
scalar tree_4_3_u01_r3_network.node[10].content_store 	misses[10] 	32469
scalar tree_4_3_u01_r3_network.node[10].content_store 	decision_yes[10] 	0
scalar tree_4_3_u01_r3_network.node[10].content_store 	decision_no[10] 	32465
scalar tree_4_3_u01_r3_network.node[10].content_store 	decision_ratio[10] 	0
scalar tree_4_3_u01_r3_network.node[11].core_layer 	interests[11] 	36515
scalar tree_4_3_u01_r3_network.node[11].core_layer 	data[11] 	36512
scalar tree_4_3_u01_r3_network.node[11].content_store 	p_hit[11] 	0
scalar tree_4_3_u01_r3_network.node[11].content_store 	hits[11] 	0
scalar tree_4_3_u01_r3_network.node[11].content_store 	misses[11] 	36515
scalar tree_4_3_u01_r3_network.node[11].content_store 	decision_yes[11] 	0
scalar tree_4_3_u01_r3_network.node[11].content_store 	decision_no[11] 	36506
scalar tree_4_3_u01_r3_network.node[11].content_store 	decision_ratio[11] 	0
scalar tree_4_3_u01_r3_network.node[12].core_layer 	interests[12] 	32582
scalar tree_4_3_u01_r3_network.node[12].core_layer 	data[12] 	32581
scalar tree_4_3_u01_r3_network.node[12].content_store 	p_hit[12] 	0
scalar tree_4_3_u01_r3_network.node[12].content_store 	hits[12] 	0
scalar tree_4_3_u01_r3_network.node[12].content_store 	misses[12] 	32582
scalar tree_4_3_u01_r3_network.node[12].content_store 	decision_yes[12] 	0
scalar tree_4_3_u01_r3_network.node[12].content_store 	decision_no[12] 	32580
scalar tree_4_3_u01_r3_network.node[12].content_store 	decision_ratio[12] 	0
scalar tree_4_3_u01_r3_network.node[13].core_layer 	interests[13] 	13796
scalar tree_4_3_u01_r3_network.node[13].core_layer 	data[13] 	10120
scalar tree_4_3_u01_r3_network.node[13].content_store 	p_hit[13] 	0.26630907509423
scalar tree_4_3_u01_r3_network.node[13].content_store 	hits[13] 	3674
scalar tree_4_3_u01_r3_network.node[13].content_store 	misses[13] 	10122
scalar tree_4_3_u01_r3_network.node[13].content_store 	decision_yes[13] 	10120
scalar tree_4_3_u01_r3_network.node[13].content_store 	decision_no[13] 	0
scalar tree_4_3_u01_r3_network.node[13].content_store 	decision_ratio[13] 	1
scalar tree_4_3_u01_r3_network.node[14].core_layer 	interests[14] 	13707
scalar tree_4_3_u01_r3_network.node[14].core_layer 	data[14] 	10003
scalar tree_4_3_u01_r3_network.node[14].content_store 	p_hit[14] 	0.27015393594514
scalar tree_4_3_u01_r3_network.node[14].content_store 	hits[14] 	3703
scalar tree_4_3_u01_r3_network.node[14].content_store 	misses[14] 	10004
scalar tree_4_3_u01_r3_network.node[14].content_store 	decision_yes[14] 	10003
scalar tree_4_3_u01_r3_network.node[14].content_store 	decision_no[14] 	0
scalar tree_4_3_u01_r3_network.node[14].content_store 	decision_ratio[14] 	1
scalar tree_4_3_u01_r3_network.node[15].core_layer 	interests[15] 	14029
scalar tree_4_3_u01_r3_network.node[15].core_layer 	data[15] 	10209
scalar tree_4_3_u01_r3_network.node[15].content_store 	p_hit[15] 	0.27222182621712
scalar tree_4_3_u01_r3_network.node[15].content_store 	hits[15] 	3819
scalar tree_4_3_u01_r3_network.node[15].content_store 	misses[15] 	10210
scalar tree_4_3_u01_r3_network.node[15].content_store 	decision_yes[15] 	10209
scalar tree_4_3_u01_r3_network.node[15].content_store 	decision_no[15] 	0
scalar tree_4_3_u01_r3_network.node[15].content_store 	decision_ratio[15] 	1
scalar tree_4_3_u01_r3_network.node[16].core_layer 	interests[16] 	13849
scalar tree_4_3_u01_r3_network.node[16].core_layer 	data[16] 	10132
scalar tree_4_3_u01_r3_network.node[16].content_store 	p_hit[16] 	0.26832262257203
scalar tree_4_3_u01_r3_network.node[16].content_store 	hits[16] 	3716
scalar tree_4_3_u01_r3_network.node[16].content_store 	misses[16] 	10133
scalar tree_4_3_u01_r3_network.node[16].content_store 	decision_yes[16] 	10132
scalar tree_4_3_u01_r3_network.node[16].content_store 	decision_no[16] 	0
scalar tree_4_3_u01_r3_network.node[16].content_store 	decision_ratio[16] 	1
scalar tree_4_3_u01_r3_network.node[17].core_layer 	interests[17] 	13884
scalar tree_4_3_u01_r3_network.node[17].core_layer 	data[17] 	10172
scalar tree_4_3_u01_r3_network.node[17].content_store 	p_hit[17] 	0.26721405934889
scalar tree_4_3_u01_r3_network.node[17].content_store 	hits[17] 	3710
scalar tree_4_3_u01_r3_network.node[17].content_store 	misses[17] 	10174
scalar tree_4_3_u01_r3_network.node[17].content_store 	decision_yes[17] 	10172
scalar tree_4_3_u01_r3_network.node[17].content_store 	decision_no[17] 	0
scalar tree_4_3_u01_r3_network.node[17].content_store 	decision_ratio[17] 	1
scalar tree_4_3_u01_r3_network.node[18].core_layer 	interests[18] 	13791
scalar tree_4_3_u01_r3_network.node[18].core_layer 	data[18] 	10099
scalar tree_4_3_u01_r3_network.node[18].content_store 	p_hit[18] 	0.26763831484301
scalar tree_4_3_u01_r3_network.node[18].content_store 	hits[18] 	3691
scalar tree_4_3_u01_r3_network.node[18].content_store 	misses[18] 	10100
scalar tree_4_3_u01_r3_network.node[18].content_store 	decision_yes[18] 	10099
scalar tree_4_3_u01_r3_network.node[18].content_store 	decision_no[18] 	0
scalar tree_4_3_u01_r3_network.node[18].content_store 	decision_ratio[18] 	1
scalar tree_4_3_u01_r3_network.node[19].core_layer 	interests[19] 	13853
scalar tree_4_3_u01_r3_network.node[19].core_layer 	data[19] 	9983
scalar tree_4_3_u01_r3_network.node[19].content_store 	p_hit[19] 	0.27943405760485
scalar tree_4_3_u01_r3_network.node[19].content_store 	hits[19] 	3871
scalar tree_4_3_u01_r3_network.node[19].content_store 	misses[19] 	9982
scalar tree_4_3_u01_r3_network.node[19].content_store 	decision_yes[19] 	9983
scalar tree_4_3_u01_r3_network.node[19].content_store 	decision_no[19] 	0
scalar tree_4_3_u01_r3_network.node[19].content_store 	decision_ratio[19] 	1
scalar tree_4_3_u01_r3_network.node[20].core_layer 	interests[20] 	13885
scalar tree_4_3_u01_r3_network.node[20].core_layer 	data[20] 	10004
scalar tree_4_3_u01_r3_network.node[20].content_store 	p_hit[20] 	0.27929420237667
scalar tree_4_3_u01_r3_network.node[20].content_store 	hits[20] 	3878
scalar tree_4_3_u01_r3_network.node[20].content_store 	misses[20] 	10007
scalar tree_4_3_u01_r3_network.node[20].content_store 	decision_yes[20] 	10004
scalar tree_4_3_u01_r3_network.node[20].content_store 	decision_no[20] 	0
scalar tree_4_3_u01_r3_network.node[20].content_store 	decision_ratio[20] 	1
scalar tree_4_3_u01_r3_network.node[21].core_layer 	interests[21] 	13934
scalar tree_4_3_u01_r3_network.node[21].core_layer 	data[21] 	10138
scalar tree_4_3_u01_r3_network.node[21].content_store 	p_hit[21] 	0.27228362279317
scalar tree_4_3_u01_r3_network.node[21].content_store 	hits[21] 	3794
scalar tree_4_3_u01_r3_network.node[21].content_store 	misses[21] 	10140
scalar tree_4_3_u01_r3_network.node[21].content_store 	decision_yes[21] 	10138
scalar tree_4_3_u01_r3_network.node[21].content_store 	decision_no[21] 	0
scalar tree_4_3_u01_r3_network.node[21].content_store 	decision_ratio[21] 	1
scalar tree_4_3_u01_r3_network.node[22].core_layer 	interests[22] 	13841
scalar tree_4_3_u01_r3_network.node[22].core_layer 	data[22] 	10117
scalar tree_4_3_u01_r3_network.node[22].content_store 	p_hit[22] 	0.26905570406763
scalar tree_4_3_u01_r3_network.node[22].content_store 	hits[22] 	3724
scalar tree_4_3_u01_r3_network.node[22].content_store 	misses[22] 	10117
scalar tree_4_3_u01_r3_network.node[22].content_store 	decision_yes[22] 	10117
scalar tree_4_3_u01_r3_network.node[22].content_store 	decision_no[22] 	0
scalar tree_4_3_u01_r3_network.node[22].content_store 	decision_ratio[22] 	1
scalar tree_4_3_u01_r3_network.node[23].core_layer 	interests[23] 	13848
scalar tree_4_3_u01_r3_network.node[23].core_layer 	data[23] 	10092
scalar tree_4_3_u01_r3_network.node[23].content_store 	p_hit[23] 	0.27115829000578
scalar tree_4_3_u01_r3_network.node[23].content_store 	hits[23] 	3755
scalar tree_4_3_u01_r3_network.node[23].content_store 	misses[23] 	10093
scalar tree_4_3_u01_r3_network.node[23].content_store 	decision_yes[23] 	10092
scalar tree_4_3_u01_r3_network.node[23].content_store 	decision_no[23] 	0
scalar tree_4_3_u01_r3_network.node[23].content_store 	decision_ratio[23] 	1
scalar tree_4_3_u01_r3_network.node[24].core_layer 	interests[24] 	14935
scalar tree_4_3_u01_r3_network.node[24].core_layer 	data[24] 	9894
scalar tree_4_3_u01_r3_network.node[24].content_store 	p_hit[24] 	0.33752929360562
scalar tree_4_3_u01_r3_network.node[24].content_store 	hits[24] 	5041
scalar tree_4_3_u01_r3_network.node[24].content_store 	misses[24] 	9894
scalar tree_4_3_u01_r3_network.node[24].content_store 	decision_yes[24] 	9894
scalar tree_4_3_u01_r3_network.node[24].content_store 	decision_no[24] 	0
scalar tree_4_3_u01_r3_network.node[24].content_store 	decision_ratio[24] 	1
scalar tree_4_3_u01_r3_network.node[25].core_layer 	interests[25] 	14689
scalar tree_4_3_u01_r3_network.node[25].core_layer 	data[25] 	9958
scalar tree_4_3_u01_r3_network.node[25].content_store 	p_hit[25] 	0.32207774525155
scalar tree_4_3_u01_r3_network.node[25].content_store 	hits[25] 	4731
scalar tree_4_3_u01_r3_network.node[25].content_store 	misses[25] 	9958
scalar tree_4_3_u01_r3_network.node[25].content_store 	decision_yes[25] 	9958
scalar tree_4_3_u01_r3_network.node[25].content_store 	decision_no[25] 	0
scalar tree_4_3_u01_r3_network.node[25].content_store 	decision_ratio[25] 	1
scalar tree_4_3_u01_r3_network.node[26].core_layer 	interests[26] 	13699
scalar tree_4_3_u01_r3_network.node[26].core_layer 	data[26] 	10115
scalar tree_4_3_u01_r3_network.node[26].content_store 	p_hit[26] 	0.26162493612672
scalar tree_4_3_u01_r3_network.node[26].content_store 	hits[26] 	3584
scalar tree_4_3_u01_r3_network.node[26].content_store 	misses[26] 	10115
scalar tree_4_3_u01_r3_network.node[26].content_store 	decision_yes[26] 	10115
scalar tree_4_3_u01_r3_network.node[26].content_store 	decision_no[26] 	0
scalar tree_4_3_u01_r3_network.node[26].content_store 	decision_ratio[26] 	1
scalar tree_4_3_u01_r3_network.node[27].core_layer 	interests[27] 	13693
scalar tree_4_3_u01_r3_network.node[27].core_layer 	data[27] 	10185
scalar tree_4_3_u01_r3_network.node[27].content_store 	p_hit[27] 	0.25618929379975
scalar tree_4_3_u01_r3_network.node[27].content_store 	hits[27] 	3508
scalar tree_4_3_u01_r3_network.node[27].content_store 	misses[27] 	10185
scalar tree_4_3_u01_r3_network.node[27].content_store 	decision_yes[27] 	10185
scalar tree_4_3_u01_r3_network.node[27].content_store 	decision_no[27] 	0
scalar tree_4_3_u01_r3_network.node[27].content_store 	decision_ratio[27] 	1
scalar tree_4_3_u01_r3_network.node[28].core_layer 	interests[28] 	13755
scalar tree_4_3_u01_r3_network.node[28].core_layer 	data[28] 	9859
scalar tree_4_3_u01_r3_network.node[28].content_store 	p_hit[28] 	0.28324245728826
scalar tree_4_3_u01_r3_network.node[28].content_store 	hits[28] 	3896
scalar tree_4_3_u01_r3_network.node[28].content_store 	misses[28] 	9859
scalar tree_4_3_u01_r3_network.node[28].content_store 	decision_yes[28] 	9859
scalar tree_4_3_u01_r3_network.node[28].content_store 	decision_no[28] 	0
scalar tree_4_3_u01_r3_network.node[28].content_store 	decision_ratio[28] 	1
scalar tree_4_3_u01_r3_network.node[29].core_layer 	interests[29] 	14005
scalar tree_4_3_u01_r3_network.node[29].core_layer 	data[29] 	10134
scalar tree_4_3_u01_r3_network.node[29].content_store 	p_hit[29] 	0.27640128525527
scalar tree_4_3_u01_r3_network.node[29].content_store 	hits[29] 	3871
scalar tree_4_3_u01_r3_network.node[29].content_store 	misses[29] 	10134
scalar tree_4_3_u01_r3_network.node[29].content_store 	decision_yes[29] 	10134
scalar tree_4_3_u01_r3_network.node[29].content_store 	decision_no[29] 	0
scalar tree_4_3_u01_r3_network.node[29].content_store 	decision_ratio[29] 	1
scalar tree_4_3_u01_r3_network.node[30].core_layer 	interests[30] 	13672
scalar tree_4_3_u01_r3_network.node[30].core_layer 	data[30] 	9921
scalar tree_4_3_u01_r3_network.node[30].content_store 	p_hit[30] 	0.27442949093037
scalar tree_4_3_u01_r3_network.node[30].content_store 	hits[30] 	3752
scalar tree_4_3_u01_r3_network.node[30].content_store 	misses[30] 	9920
scalar tree_4_3_u01_r3_network.node[30].content_store 	decision_yes[30] 	9921
scalar tree_4_3_u01_r3_network.node[30].content_store 	decision_no[30] 	0
scalar tree_4_3_u01_r3_network.node[30].content_store 	decision_ratio[30] 	1
scalar tree_4_3_u01_r3_network.node[31].core_layer 	interests[31] 	13559
scalar tree_4_3_u01_r3_network.node[31].core_layer 	data[31] 	10082
scalar tree_4_3_u01_r3_network.node[31].content_store 	p_hit[31] 	0.25636108857585
scalar tree_4_3_u01_r3_network.node[31].content_store 	hits[31] 	3476
scalar tree_4_3_u01_r3_network.node[31].content_store 	misses[31] 	10083
scalar tree_4_3_u01_r3_network.node[31].content_store 	decision_yes[31] 	10082
scalar tree_4_3_u01_r3_network.node[31].content_store 	decision_no[31] 	0
scalar tree_4_3_u01_r3_network.node[31].content_store 	decision_ratio[31] 	1
scalar tree_4_3_u01_r3_network.node[32].core_layer 	interests[32] 	13633
scalar tree_4_3_u01_r3_network.node[32].core_layer 	data[32] 	10021
scalar tree_4_3_u01_r3_network.node[32].content_store 	p_hit[32] 	0.26494535318712
scalar tree_4_3_u01_r3_network.node[32].content_store 	hits[32] 	3612
scalar tree_4_3_u01_r3_network.node[32].content_store 	misses[32] 	10021
scalar tree_4_3_u01_r3_network.node[32].content_store 	decision_yes[32] 	10021
scalar tree_4_3_u01_r3_network.node[32].content_store 	decision_no[32] 	0
scalar tree_4_3_u01_r3_network.node[32].content_store 	decision_ratio[32] 	1
scalar tree_4_3_u01_r3_network.node[33].core_layer 	interests[33] 	13671
scalar tree_4_3_u01_r3_network.node[33].core_layer 	data[33] 	10101
scalar tree_4_3_u01_r3_network.node[33].content_store 	p_hit[33] 	0.26106356521103
scalar tree_4_3_u01_r3_network.node[33].content_store 	hits[33] 	3569
scalar tree_4_3_u01_r3_network.node[33].content_store 	misses[33] 	10102
scalar tree_4_3_u01_r3_network.node[33].content_store 	decision_yes[33] 	10101
scalar tree_4_3_u01_r3_network.node[33].content_store 	decision_no[33] 	0
scalar tree_4_3_u01_r3_network.node[33].content_store 	decision_ratio[33] 	1
scalar tree_4_3_u01_r3_network.node[34].core_layer 	interests[34] 	14891
scalar tree_4_3_u01_r3_network.node[34].core_layer 	data[34] 	9998
scalar tree_4_3_u01_r3_network.node[34].content_store 	p_hit[34] 	0.32852058290242
scalar tree_4_3_u01_r3_network.node[34].content_store 	hits[34] 	4892
scalar tree_4_3_u01_r3_network.node[34].content_store 	misses[34] 	9999
scalar tree_4_3_u01_r3_network.node[34].content_store 	decision_yes[34] 	9998
scalar tree_4_3_u01_r3_network.node[34].content_store 	decision_no[34] 	0
scalar tree_4_3_u01_r3_network.node[34].content_store 	decision_ratio[34] 	1
scalar tree_4_3_u01_r3_network.node[35].core_layer 	interests[35] 	15135
scalar tree_4_3_u01_r3_network.node[35].core_layer 	data[35] 	9958
scalar tree_4_3_u01_r3_network.node[35].content_store 	p_hit[35] 	0.34198876775685
scalar tree_4_3_u01_r3_network.node[35].content_store 	hits[35] 	5176
scalar tree_4_3_u01_r3_network.node[35].content_store 	misses[35] 	9959
scalar tree_4_3_u01_r3_network.node[35].content_store 	decision_yes[35] 	9958
scalar tree_4_3_u01_r3_network.node[35].content_store 	decision_no[35] 	0
scalar tree_4_3_u01_r3_network.node[35].content_store 	decision_ratio[35] 	1
scalar tree_4_3_u01_r3_network.node[36].core_layer 	interests[36] 	15141
scalar tree_4_3_u01_r3_network.node[36].core_layer 	data[36] 	10061
scalar tree_4_3_u01_r3_network.node[36].content_store 	p_hit[36] 	0.33551284591507
scalar tree_4_3_u01_r3_network.node[36].content_store 	hits[36] 	5080
scalar tree_4_3_u01_r3_network.node[36].content_store 	misses[36] 	10061
scalar tree_4_3_u01_r3_network.node[36].content_store 	decision_yes[36] 	10061
scalar tree_4_3_u01_r3_network.node[36].content_store 	decision_no[36] 	0
scalar tree_4_3_u01_r3_network.node[36].content_store 	decision_ratio[36] 	1
scalar tree_4_3_u01_r3_network.node[37].core_layer 	interests[37] 	13771
scalar tree_4_3_u01_r3_network.node[37].core_layer 	data[37] 	10189
scalar tree_4_3_u01_r3_network.node[37].content_store 	p_hit[37] 	0.2601118292063
scalar tree_4_3_u01_r3_network.node[37].content_store 	hits[37] 	3582
scalar tree_4_3_u01_r3_network.node[37].content_store 	misses[37] 	10189
scalar tree_4_3_u01_r3_network.node[37].content_store 	decision_yes[37] 	10189
scalar tree_4_3_u01_r3_network.node[37].content_store 	decision_no[37] 	0
scalar tree_4_3_u01_r3_network.node[37].content_store 	decision_ratio[37] 	1
scalar tree_4_3_u01_r3_network.node[38].core_layer 	interests[38] 	13485
scalar tree_4_3_u01_r3_network.node[38].core_layer 	data[38] 	9957
scalar tree_4_3_u01_r3_network.node[38].content_store 	p_hit[38] 	0.26147571375603
scalar tree_4_3_u01_r3_network.node[38].content_store 	hits[38] 	3526
scalar tree_4_3_u01_r3_network.node[38].content_store 	misses[38] 	9959
scalar tree_4_3_u01_r3_network.node[38].content_store 	decision_yes[38] 	9957
scalar tree_4_3_u01_r3_network.node[38].content_store 	decision_no[38] 	0
scalar tree_4_3_u01_r3_network.node[38].content_store 	decision_ratio[38] 	1
scalar tree_4_3_u01_r3_network.node[39].core_layer 	interests[39] 	13751
scalar tree_4_3_u01_r3_network.node[39].core_layer 	data[39] 	10114
scalar tree_4_3_u01_r3_network.node[39].content_store 	p_hit[39] 	0.26434441131554
scalar tree_4_3_u01_r3_network.node[39].content_store 	hits[39] 	3635
scalar tree_4_3_u01_r3_network.node[39].content_store 	misses[39] 	10116
scalar tree_4_3_u01_r3_network.node[39].content_store 	decision_yes[39] 	10114
scalar tree_4_3_u01_r3_network.node[39].content_store 	decision_no[39] 	0
scalar tree_4_3_u01_r3_network.node[39].content_store 	decision_ratio[39] 	1
scalar tree_4_3_u01_r3_network.client[13] 	hdistance[13] 	3.2172107317884
scalar tree_4_3_u01_r3_network.client[13] 	downloads[13] 	12039
scalar tree_4_3_u01_r3_network.client[13] 	avg_time[13] 	0.005052618563
scalar tree_4_3_u01_r3_network.client[14] 	hdistance[14] 	3.195191183837
scalar tree_4_3_u01_r3_network.client[14] 	downloads[14] 	11978
scalar tree_4_3_u01_r3_network.client[14] 	avg_time[14] 	0.005017379825
scalar tree_4_3_u01_r3_network.client[15] 	hdistance[15] 	3.1995412844037
scalar tree_4_3_u01_r3_network.client[15] 	downloads[15] 	12208
scalar tree_4_3_u01_r3_network.client[15] 	avg_time[15] 	0.00502842668
scalar tree_4_3_u01_r3_network.client[16] 	hdistance[16] 	3.2255813953488
scalar tree_4_3_u01_r3_network.client[16] 	downloads[16] 	12040
scalar tree_4_3_u01_r3_network.client[16] 	avg_time[16] 	0.005061133025
scalar tree_4_3_u01_r3_network.client[17] 	hdistance[17] 	3.207519168934
scalar tree_4_3_u01_r3_network.client[17] 	downloads[17] 	12129
scalar tree_4_3_u01_r3_network.client[17] 	avg_time[17] 	0.005035662959
scalar tree_4_3_u01_r3_network.client[18] 	hdistance[18] 	3.2187812187812
scalar tree_4_3_u01_r3_network.client[18] 	downloads[18] 	12012
scalar tree_4_3_u01_r3_network.client[18] 	avg_time[18] 	0.00505740758
scalar tree_4_3_u01_r3_network.client[19] 	hdistance[19] 	3.1808953236811
scalar tree_4_3_u01_r3_network.client[19] 	downloads[19] 	12018
scalar tree_4_3_u01_r3_network.client[19] 	avg_time[19] 	0.004985851559
scalar tree_4_3_u01_r3_network.client[20] 	hdistance[20] 	3.1758652170305
scalar tree_4_3_u01_r3_network.client[20] 	downloads[20] 	12049
scalar tree_4_3_u01_r3_network.client[20] 	avg_time[20] 	0.004987173345
scalar tree_4_3_u01_r3_network.client[21] 	hdistance[21] 	3.1975603725377
scalar tree_4_3_u01_r3_network.client[21] 	downloads[21] 	12133
scalar tree_4_3_u01_r3_network.client[21] 	avg_time[21] 	0.005021386481
scalar tree_4_3_u01_r3_network.client[22] 	hdistance[22] 	3.1431166900652
scalar tree_4_3_u01_r3_network.client[22] 	downloads[22] 	12109
scalar tree_4_3_u01_r3_network.client[22] 	avg_time[22] 	0.004966055255
scalar tree_4_3_u01_r3_network.client[23] 	hdistance[23] 	3.1556404084004
scalar tree_4_3_u01_r3_network.client[23] 	downloads[23] 	12047
scalar tree_4_3_u01_r3_network.client[23] 	avg_time[23] 	0.004994411737
scalar tree_4_3_u01_r3_network.client[24] 	hdistance[24] 	3.0719031200067
scalar tree_4_3_u01_r3_network.client[24] 	downloads[24] 	11891
scalar tree_4_3_u01_r3_network.client[24] 	avg_time[24] 	0.00481792651
scalar tree_4_3_u01_r3_network.client[25] 	hdistance[25] 	3.0862183754993
scalar tree_4_3_u01_r3_network.client[25] 	downloads[25] 	12016
scalar tree_4_3_u01_r3_network.client[25] 	avg_time[25] 	0.00484621477
scalar tree_4_3_u01_r3_network.client[26] 	hdistance[26] 	3.2107578650286
scalar tree_4_3_u01_r3_network.client[26] 	downloads[26] 	12047
scalar tree_4_3_u01_r3_network.client[26] 	avg_time[26] 	0.005087103636
scalar tree_4_3_u01_r3_network.client[27] 	hdistance[27] 	3.2315859323159
scalar tree_4_3_u01_r3_network.client[27] 	downloads[27] 	12056
scalar tree_4_3_u01_r3_network.client[27] 	avg_time[27] 	0.005122286452
scalar tree_4_3_u01_r3_network.client[28] 	hdistance[28] 	3.1339353531944
scalar tree_4_3_u01_r3_network.client[28] 	downloads[28] 	11849
scalar tree_4_3_u01_r3_network.client[28] 	avg_time[28] 	0.004956829338
scalar tree_4_3_u01_r3_network.client[29] 	hdistance[29] 	3.1631522368312
scalar tree_4_3_u01_r3_network.client[29] 	downloads[29] 	12093
scalar tree_4_3_u01_r3_network.client[29] 	avg_time[29] 	0.005002891204
scalar tree_4_3_u01_r3_network.client[30] 	hdistance[30] 	3.1563267033432
scalar tree_4_3_u01_r3_network.client[30] 	downloads[30] 	11815
scalar tree_4_3_u01_r3_network.client[30] 	avg_time[30] 	0.004990094374
scalar tree_4_3_u01_r3_network.client[31] 	hdistance[31] 	3.2206902314699
scalar tree_4_3_u01_r3_network.client[31] 	downloads[31] 	11967
scalar tree_4_3_u01_r3_network.client[31] 	avg_time[31] 	0.005071439851
scalar tree_4_3_u01_r3_network.client[32] 	hdistance[32] 	3.2078431372549
scalar tree_4_3_u01_r3_network.client[32] 	downloads[32] 	11985
scalar tree_4_3_u01_r3_network.client[32] 	avg_time[32] 	0.005038795502
scalar tree_4_3_u01_r3_network.client[33] 	hdistance[33] 	3.2046415250725
scalar tree_4_3_u01_r3_network.client[33] 	downloads[33] 	12065
scalar tree_4_3_u01_r3_network.client[33] 	avg_time[33] 	0.005043036159
scalar tree_4_3_u01_r3_network.client[34] 	hdistance[34] 	3.2031538332495
scalar tree_4_3_u01_r3_network.client[34] 	downloads[34] 	11922
scalar tree_4_3_u01_r3_network.client[34] 	avg_time[34] 	0.005140718431
scalar tree_4_3_u01_r3_network.client[35] 	hdistance[35] 	3.171077899307
scalar tree_4_3_u01_r3_network.client[35] 	downloads[35] 	11977
scalar tree_4_3_u01_r3_network.client[35] 	avg_time[35] 	0.005091290968
scalar tree_4_3_u01_r3_network.client[36] 	hdistance[36] 	3.1869514820335
scalar tree_4_3_u01_r3_network.client[36] 	downloads[36] 	12078
scalar tree_4_3_u01_r3_network.client[36] 	avg_time[36] 	0.005107465121
scalar tree_4_3_u01_r3_network.client[37] 	hdistance[37] 	3.2184666117065
scalar tree_4_3_u01_r3_network.client[37] 	downloads[37] 	12130
scalar tree_4_3_u01_r3_network.client[37] 	avg_time[37] 	0.005072947406
scalar tree_4_3_u01_r3_network.client[38] 	hdistance[38] 	3.2019845274134
scalar tree_4_3_u01_r3_network.client[38] 	downloads[38] 	11892
scalar tree_4_3_u01_r3_network.client[38] 	avg_time[38] 	0.005031647352
scalar tree_4_3_u01_r3_network.client[39] 	hdistance[39] 	3.2095064590924
scalar tree_4_3_u01_r3_network.client[39] 	downloads[39] 	12076
scalar tree_4_3_u01_r3_network.client[39] 	avg_time[39] 	0.005044277117
