version 2
run General-21-20160818-18:30:45-19481
attr a 0.9
attr cd lce
attr configname General
attr cr lru
attr datetime 20160818-18:30:45
attr experiment General
attr fsize 1
attr inifile hw5115/scenario_A/EdgeCoop.ini
attr iterationvars "$name=tree_4_3, $un=01, $rep=2, $scenario=Edge, $cd=lce, $cr=lru, $fsize=1, $a=0.9, $sl=nrr, $ttl=1000, $variance=0.05"
attr iterationvars2 "$name=tree_4_3, $un=01, $rep=2, $scenario=Edge, $cd=lce, $cr=lru, $fsize=1, $a=0.9, $sl=nrr, $ttl=1000, $variance=0.05, $repetition=0"
attr measurement "$name=tree_4_3, $un=01, $rep=2, $scenario=Edge, $cd=lce, $cr=lru, $fsize=1, $a=0.9, $sl=nrr, $ttl=1000, $variance=0.05"
attr name tree_4_3
attr network networks.${name}_u${un}_r${rep}_network
attr processid 19481
attr rep 2
attr repetition 0
attr replication #0
attr resultdir results
attr runnumber 21
attr scenario Edge
attr seedset 2
attr sl nrr
attr ttl 1000
attr un 01
attr variance 0.05

scalar . 	a 	0.9
scalar . 	fsize 	1
scalar . 	rep 	2
scalar . 	ttl 	1000
scalar . 	un 	01
scalar . 	variance 	0.05
scalar tree_4_3_u01_r2_network.content_distribution 	repo-0 	0
scalar tree_4_3_u01_r2_network.content_distribution 	client-0 	13
scalar tree_4_3_u01_r2_network.content_distribution 	client-1 	14
scalar tree_4_3_u01_r2_network.content_distribution 	client-2 	15
scalar tree_4_3_u01_r2_network.content_distribution 	client-3 	16
scalar tree_4_3_u01_r2_network.content_distribution 	client-4 	17
scalar tree_4_3_u01_r2_network.content_distribution 	client-5 	18
scalar tree_4_3_u01_r2_network.content_distribution 	client-6 	19
scalar tree_4_3_u01_r2_network.content_distribution 	client-7 	20
scalar tree_4_3_u01_r2_network.content_distribution 	client-8 	21
scalar tree_4_3_u01_r2_network.content_distribution 	client-9 	22
scalar tree_4_3_u01_r2_network.content_distribution 	client-10 	23
scalar tree_4_3_u01_r2_network.content_distribution 	client-11 	24
scalar tree_4_3_u01_r2_network.content_distribution 	client-12 	25
scalar tree_4_3_u01_r2_network.content_distribution 	client-13 	26
scalar tree_4_3_u01_r2_network.content_distribution 	client-14 	27
scalar tree_4_3_u01_r2_network.content_distribution 	client-15 	28
scalar tree_4_3_u01_r2_network.content_distribution 	client-16 	29
scalar tree_4_3_u01_r2_network.content_distribution 	client-17 	30
scalar tree_4_3_u01_r2_network.content_distribution 	client-18 	31
scalar tree_4_3_u01_r2_network.content_distribution 	client-19 	32
scalar tree_4_3_u01_r2_network.content_distribution 	client-20 	33
scalar tree_4_3_u01_r2_network.content_distribution 	client-21 	34
scalar tree_4_3_u01_r2_network.content_distribution 	client-22 	35
scalar tree_4_3_u01_r2_network.content_distribution 	client-23 	36
scalar tree_4_3_u01_r2_network.content_distribution 	client-24 	37
scalar tree_4_3_u01_r2_network.content_distribution 	client-25 	38
scalar tree_4_3_u01_r2_network.content_distribution 	client-26 	39
scalar tree_4_3_u01_r2_network.content_distribution 	repo-0_card 	100000
scalar tree_4_3_u01_r2_network.content_distribution 	repo-0_price 	0
scalar tree_4_3_u01_r2_network.statistics 	stabilization_time 	338.5
scalar tree_4_3_u01_r2_network.statistics 	p_hit 	0.1887275783652
scalar tree_4_3_u01_r2_network.statistics 	interests 	28486.65
scalar tree_4_3_u01_r2_network.statistics 	data 	20382.225
scalar tree_4_3_u01_r2_network.statistics 	hdistance 	3.188147418558
scalar tree_4_3_u01_r2_network.statistics 	avg_time 	0.005030025734
scalar tree_4_3_u01_r2_network.statistics 	downloads 	324157
scalar tree_4_3_u01_r2_network.statistics 	total_cost 	0
scalar tree_4_3_u01_r2_network.statistics 	total_replicas 	100000
scalar tree_4_3_u01_r2_network.statistics 	inner_hit 	0.32688172706435
scalar tree_4_3_u01_r2_network.node[0].core_layer 	interests[0] 	218196
scalar tree_4_3_u01_r2_network.node[0].core_layer 	repo_load[0] 	218196
scalar tree_4_3_u01_r2_network.node[0].core_layer 	data[0] 	0
scalar tree_4_3_u01_r2_network.node[0].core_layer 	repo_int[0] 	218196
scalar tree_4_3_u01_r2_network.node[0].content_store 	p_hit[0] 	0
scalar tree_4_3_u01_r2_network.node[0].content_store 	hits[0] 	0
scalar tree_4_3_u01_r2_network.node[0].content_store 	misses[0] 	218196
scalar tree_4_3_u01_r2_network.node[0].content_store 	decision_yes[0] 	0
scalar tree_4_3_u01_r2_network.node[0].content_store 	decision_no[0] 	218196
scalar tree_4_3_u01_r2_network.node[0].content_store 	decision_ratio[0] 	0
scalar tree_4_3_u01_r2_network.node[1].core_layer 	interests[1] 	106551
scalar tree_4_3_u01_r2_network.node[1].core_layer 	data[1] 	106544
scalar tree_4_3_u01_r2_network.node[1].content_store 	p_hit[1] 	0
scalar tree_4_3_u01_r2_network.node[1].content_store 	hits[1] 	0
scalar tree_4_3_u01_r2_network.node[1].content_store 	misses[1] 	106551
scalar tree_4_3_u01_r2_network.node[1].content_store 	decision_yes[1] 	0
scalar tree_4_3_u01_r2_network.node[1].content_store 	decision_no[1] 	106534
scalar tree_4_3_u01_r2_network.node[1].content_store 	decision_ratio[1] 	0
scalar tree_4_3_u01_r2_network.node[2].core_layer 	interests[2] 	81324
scalar tree_4_3_u01_r2_network.node[2].core_layer 	data[2] 	81319
scalar tree_4_3_u01_r2_network.node[2].content_store 	p_hit[2] 	0
scalar tree_4_3_u01_r2_network.node[2].content_store 	hits[2] 	0
scalar tree_4_3_u01_r2_network.node[2].content_store 	misses[2] 	81324
scalar tree_4_3_u01_r2_network.node[2].content_store 	decision_yes[2] 	0
scalar tree_4_3_u01_r2_network.node[2].content_store 	decision_no[2] 	81313
scalar tree_4_3_u01_r2_network.node[2].content_store 	decision_ratio[2] 	0
scalar tree_4_3_u01_r2_network.node[3].core_layer 	interests[3] 	57377
scalar tree_4_3_u01_r2_network.node[3].core_layer 	data[3] 	57377
scalar tree_4_3_u01_r2_network.node[3].content_store 	p_hit[3] 	0
scalar tree_4_3_u01_r2_network.node[3].content_store 	hits[3] 	0
scalar tree_4_3_u01_r2_network.node[3].content_store 	misses[3] 	57377
scalar tree_4_3_u01_r2_network.node[3].content_store 	decision_yes[3] 	0
scalar tree_4_3_u01_r2_network.node[3].content_store 	decision_no[3] 	57375
scalar tree_4_3_u01_r2_network.node[3].content_store 	decision_ratio[3] 	0
scalar tree_4_3_u01_r2_network.node[4].core_layer 	interests[4] 	43097
scalar tree_4_3_u01_r2_network.node[4].core_layer 	data[4] 	43096
scalar tree_4_3_u01_r2_network.node[4].content_store 	p_hit[4] 	0
scalar tree_4_3_u01_r2_network.node[4].content_store 	hits[4] 	0
scalar tree_4_3_u01_r2_network.node[4].content_store 	misses[4] 	43097
scalar tree_4_3_u01_r2_network.node[4].content_store 	decision_yes[4] 	0
scalar tree_4_3_u01_r2_network.node[4].content_store 	decision_no[4] 	43093
scalar tree_4_3_u01_r2_network.node[4].content_store 	decision_ratio[4] 	0
scalar tree_4_3_u01_r2_network.node[5].core_layer 	interests[5] 	22649
scalar tree_4_3_u01_r2_network.node[5].core_layer 	data[5] 	22648
scalar tree_4_3_u01_r2_network.node[5].content_store 	p_hit[5] 	0
scalar tree_4_3_u01_r2_network.node[5].content_store 	hits[5] 	0
scalar tree_4_3_u01_r2_network.node[5].content_store 	misses[5] 	22649
scalar tree_4_3_u01_r2_network.node[5].content_store 	decision_yes[5] 	0
scalar tree_4_3_u01_r2_network.node[5].content_store 	decision_no[5] 	22647
scalar tree_4_3_u01_r2_network.node[5].content_store 	decision_ratio[5] 	0
scalar tree_4_3_u01_r2_network.node[6].core_layer 	interests[6] 	32939
scalar tree_4_3_u01_r2_network.node[6].core_layer 	data[6] 	32939
scalar tree_4_3_u01_r2_network.node[6].content_store 	p_hit[6] 	0
scalar tree_4_3_u01_r2_network.node[6].content_store 	hits[6] 	0
scalar tree_4_3_u01_r2_network.node[6].content_store 	misses[6] 	32939
scalar tree_4_3_u01_r2_network.node[6].content_store 	decision_yes[6] 	0
scalar tree_4_3_u01_r2_network.node[6].content_store 	decision_no[6] 	32935
scalar tree_4_3_u01_r2_network.node[6].content_store 	decision_ratio[6] 	0
scalar tree_4_3_u01_r2_network.node[7].core_layer 	interests[7] 	42436
scalar tree_4_3_u01_r2_network.node[7].core_layer 	data[7] 	42434
scalar tree_4_3_u01_r2_network.node[7].content_store 	p_hit[7] 	0
scalar tree_4_3_u01_r2_network.node[7].content_store 	hits[7] 	0
scalar tree_4_3_u01_r2_network.node[7].content_store 	misses[7] 	42436
scalar tree_4_3_u01_r2_network.node[7].content_store 	decision_yes[7] 	0
scalar tree_4_3_u01_r2_network.node[7].content_store 	decision_no[7] 	42432
scalar tree_4_3_u01_r2_network.node[7].content_store 	decision_ratio[7] 	0
scalar tree_4_3_u01_r2_network.node[8].core_layer 	interests[8] 	32474
scalar tree_4_3_u01_r2_network.node[8].core_layer 	data[8] 	32470
scalar tree_4_3_u01_r2_network.node[8].content_store 	p_hit[8] 	0
scalar tree_4_3_u01_r2_network.node[8].content_store 	hits[8] 	0
scalar tree_4_3_u01_r2_network.node[8].content_store 	misses[8] 	32474
scalar tree_4_3_u01_r2_network.node[8].content_store 	decision_yes[8] 	0
scalar tree_4_3_u01_r2_network.node[8].content_store 	decision_no[8] 	32466
scalar tree_4_3_u01_r2_network.node[8].content_store 	decision_ratio[8] 	0
scalar tree_4_3_u01_r2_network.node[9].core_layer 	interests[9] 	22664
scalar tree_4_3_u01_r2_network.node[9].core_layer 	data[9] 	22663
scalar tree_4_3_u01_r2_network.node[9].content_store 	p_hit[9] 	0
scalar tree_4_3_u01_r2_network.node[9].content_store 	hits[9] 	0
scalar tree_4_3_u01_r2_network.node[9].content_store 	misses[9] 	22664
scalar tree_4_3_u01_r2_network.node[9].content_store 	decision_yes[9] 	0
scalar tree_4_3_u01_r2_network.node[9].content_store 	decision_no[9] 	22660
scalar tree_4_3_u01_r2_network.node[9].content_store 	decision_ratio[9] 	0
scalar tree_4_3_u01_r2_network.node[10].core_layer 	interests[10] 	37116
scalar tree_4_3_u01_r2_network.node[10].core_layer 	data[10] 	37113
scalar tree_4_3_u01_r2_network.node[10].content_store 	p_hit[10] 	0
scalar tree_4_3_u01_r2_network.node[10].content_store 	hits[10] 	0
scalar tree_4_3_u01_r2_network.node[10].content_store 	misses[10] 	37116
scalar tree_4_3_u01_r2_network.node[10].content_store 	decision_yes[10] 	0
scalar tree_4_3_u01_r2_network.node[10].content_store 	decision_no[10] 	37106
scalar tree_4_3_u01_r2_network.node[10].content_store 	decision_ratio[10] 	0
scalar tree_4_3_u01_r2_network.node[11].core_layer 	interests[11] 	32663
scalar tree_4_3_u01_r2_network.node[11].core_layer 	data[11] 	32662
scalar tree_4_3_u01_r2_network.node[11].content_store 	p_hit[11] 	0
scalar tree_4_3_u01_r2_network.node[11].content_store 	hits[11] 	0
scalar tree_4_3_u01_r2_network.node[11].content_store 	misses[11] 	32663
scalar tree_4_3_u01_r2_network.node[11].content_store 	decision_yes[11] 	0
scalar tree_4_3_u01_r2_network.node[11].content_store 	decision_no[11] 	32660
scalar tree_4_3_u01_r2_network.node[11].content_store 	decision_ratio[11] 	0
scalar tree_4_3_u01_r2_network.node[12].core_layer 	interests[12] 	32517
scalar tree_4_3_u01_r2_network.node[12].core_layer 	data[12] 	32515
scalar tree_4_3_u01_r2_network.node[12].content_store 	p_hit[12] 	0
scalar tree_4_3_u01_r2_network.node[12].content_store 	hits[12] 	0
scalar tree_4_3_u01_r2_network.node[12].content_store 	misses[12] 	32517
scalar tree_4_3_u01_r2_network.node[12].content_store 	decision_yes[12] 	0
scalar tree_4_3_u01_r2_network.node[12].content_store 	decision_no[12] 	32513
scalar tree_4_3_u01_r2_network.node[12].content_store 	decision_ratio[12] 	0
scalar tree_4_3_u01_r2_network.node[13].core_layer 	interests[13] 	13981
scalar tree_4_3_u01_r2_network.node[13].core_layer 	data[13] 	10145
scalar tree_4_3_u01_r2_network.node[13].content_store 	p_hit[13] 	0.27437236249195
scalar tree_4_3_u01_r2_network.node[13].content_store 	hits[13] 	3836
scalar tree_4_3_u01_r2_network.node[13].content_store 	misses[13] 	10145
scalar tree_4_3_u01_r2_network.node[13].content_store 	decision_yes[13] 	10145
scalar tree_4_3_u01_r2_network.node[13].content_store 	decision_no[13] 	0
scalar tree_4_3_u01_r2_network.node[13].content_store 	decision_ratio[13] 	1
scalar tree_4_3_u01_r2_network.node[14].core_layer 	interests[14] 	13755
scalar tree_4_3_u01_r2_network.node[14].core_layer 	data[14] 	9894
scalar tree_4_3_u01_r2_network.node[14].content_store 	p_hit[14] 	0.28062522719011
scalar tree_4_3_u01_r2_network.node[14].content_store 	hits[14] 	3860
scalar tree_4_3_u01_r2_network.node[14].content_store 	misses[14] 	9895
scalar tree_4_3_u01_r2_network.node[14].content_store 	decision_yes[14] 	9894
scalar tree_4_3_u01_r2_network.node[14].content_store 	decision_no[14] 	0
scalar tree_4_3_u01_r2_network.node[14].content_store 	decision_ratio[14] 	1
scalar tree_4_3_u01_r2_network.node[15].core_layer 	interests[15] 	13713
scalar tree_4_3_u01_r2_network.node[15].core_layer 	data[15] 	9913
scalar tree_4_3_u01_r2_network.node[15].content_store 	p_hit[15] 	0.27703638882812
scalar tree_4_3_u01_r2_network.node[15].content_store 	hits[15] 	3799
scalar tree_4_3_u01_r2_network.node[15].content_store 	misses[15] 	9914
scalar tree_4_3_u01_r2_network.node[15].content_store 	decision_yes[15] 	9913
scalar tree_4_3_u01_r2_network.node[15].content_store 	decision_no[15] 	0
scalar tree_4_3_u01_r2_network.node[15].content_store 	decision_ratio[15] 	1
scalar tree_4_3_u01_r2_network.node[16].core_layer 	interests[16] 	15124
scalar tree_4_3_u01_r2_network.node[16].core_layer 	data[16] 	10091
scalar tree_4_3_u01_r2_network.node[16].content_store 	p_hit[16] 	0.33271621264216
scalar tree_4_3_u01_r2_network.node[16].content_store 	hits[16] 	5032
scalar tree_4_3_u01_r2_network.node[16].content_store 	misses[16] 	10092
scalar tree_4_3_u01_r2_network.node[16].content_store 	decision_yes[16] 	10091
scalar tree_4_3_u01_r2_network.node[16].content_store 	decision_no[16] 	0
scalar tree_4_3_u01_r2_network.node[16].content_store 	decision_ratio[16] 	1
scalar tree_4_3_u01_r2_network.node[17].core_layer 	interests[17] 	13658
scalar tree_4_3_u01_r2_network.node[17].core_layer 	data[17] 	10038
scalar tree_4_3_u01_r2_network.node[17].content_store 	p_hit[17] 	0.26504612681212
scalar tree_4_3_u01_r2_network.node[17].content_store 	hits[17] 	3620
scalar tree_4_3_u01_r2_network.node[17].content_store 	misses[17] 	10038
scalar tree_4_3_u01_r2_network.node[17].content_store 	decision_yes[17] 	10038
scalar tree_4_3_u01_r2_network.node[17].content_store 	decision_no[17] 	0
scalar tree_4_3_u01_r2_network.node[17].content_store 	decision_ratio[17] 	1
scalar tree_4_3_u01_r2_network.node[18].core_layer 	interests[18] 	13690
scalar tree_4_3_u01_r2_network.node[18].core_layer 	data[18] 	9995
scalar tree_4_3_u01_r2_network.node[18].content_store 	p_hit[18] 	0.26983199415632
scalar tree_4_3_u01_r2_network.node[18].content_store 	hits[18] 	3694
scalar tree_4_3_u01_r2_network.node[18].content_store 	misses[18] 	9996
scalar tree_4_3_u01_r2_network.node[18].content_store 	decision_yes[18] 	9995
scalar tree_4_3_u01_r2_network.node[18].content_store 	decision_no[18] 	0
scalar tree_4_3_u01_r2_network.node[18].content_store 	decision_ratio[18] 	1
scalar tree_4_3_u01_r2_network.node[19].core_layer 	interests[19] 	13962
scalar tree_4_3_u01_r2_network.node[19].core_layer 	data[19] 	9991
scalar tree_4_3_u01_r2_network.node[19].content_store 	p_hit[19] 	0.28441484028076
scalar tree_4_3_u01_r2_network.node[19].content_store 	hits[19] 	3971
scalar tree_4_3_u01_r2_network.node[19].content_store 	misses[19] 	9991
scalar tree_4_3_u01_r2_network.node[19].content_store 	decision_yes[19] 	9991
scalar tree_4_3_u01_r2_network.node[19].content_store 	decision_no[19] 	0
scalar tree_4_3_u01_r2_network.node[19].content_store 	decision_ratio[19] 	1
scalar tree_4_3_u01_r2_network.node[20].core_layer 	interests[20] 	13609
scalar tree_4_3_u01_r2_network.node[20].core_layer 	data[20] 	9966
scalar tree_4_3_u01_r2_network.node[20].content_store 	p_hit[20] 	0.26754353736498
scalar tree_4_3_u01_r2_network.node[20].content_store 	hits[20] 	3641
scalar tree_4_3_u01_r2_network.node[20].content_store 	misses[20] 	9968
scalar tree_4_3_u01_r2_network.node[20].content_store 	decision_yes[20] 	9966
scalar tree_4_3_u01_r2_network.node[20].content_store 	decision_no[20] 	0
scalar tree_4_3_u01_r2_network.node[20].content_store 	decision_ratio[20] 	1
scalar tree_4_3_u01_r2_network.node[21].core_layer 	interests[21] 	13642
scalar tree_4_3_u01_r2_network.node[21].core_layer 	data[21] 	9937
scalar tree_4_3_u01_r2_network.node[21].content_store 	p_hit[21] 	0.27158774373259
scalar tree_4_3_u01_r2_network.node[21].content_store 	hits[21] 	3705
scalar tree_4_3_u01_r2_network.node[21].content_store 	misses[21] 	9937
scalar tree_4_3_u01_r2_network.node[21].content_store 	decision_yes[21] 	9937
scalar tree_4_3_u01_r2_network.node[21].content_store 	decision_no[21] 	0
scalar tree_4_3_u01_r2_network.node[21].content_store 	decision_ratio[21] 	1
scalar tree_4_3_u01_r2_network.node[22].core_layer 	interests[22] 	13829
scalar tree_4_3_u01_r2_network.node[22].core_layer 	data[22] 	10129
scalar tree_4_3_u01_r2_network.node[22].content_store 	p_hit[22] 	0.26748137970931
scalar tree_4_3_u01_r2_network.node[22].content_store 	hits[22] 	3699
scalar tree_4_3_u01_r2_network.node[22].content_store 	misses[22] 	10130
scalar tree_4_3_u01_r2_network.node[22].content_store 	decision_yes[22] 	10129
scalar tree_4_3_u01_r2_network.node[22].content_store 	decision_no[22] 	0
scalar tree_4_3_u01_r2_network.node[22].content_store 	decision_ratio[22] 	1
scalar tree_4_3_u01_r2_network.node[23].core_layer 	interests[23] 	13916
scalar tree_4_3_u01_r2_network.node[23].core_layer 	data[23] 	10114
scalar tree_4_3_u01_r2_network.node[23].content_store 	p_hit[23] 	0.27313883299799
scalar tree_4_3_u01_r2_network.node[23].content_store 	hits[23] 	3801
scalar tree_4_3_u01_r2_network.node[23].content_store 	misses[23] 	10115
scalar tree_4_3_u01_r2_network.node[23].content_store 	decision_yes[23] 	10114
scalar tree_4_3_u01_r2_network.node[23].content_store 	decision_no[23] 	0
scalar tree_4_3_u01_r2_network.node[23].content_store 	decision_ratio[23] 	1
scalar tree_4_3_u01_r2_network.node[24].core_layer 	interests[24] 	13753
scalar tree_4_3_u01_r2_network.node[24].core_layer 	data[24] 	10033
scalar tree_4_3_u01_r2_network.node[24].content_store 	p_hit[24] 	0.27048643932233
scalar tree_4_3_u01_r2_network.node[24].content_store 	hits[24] 	3720
scalar tree_4_3_u01_r2_network.node[24].content_store 	misses[24] 	10033
scalar tree_4_3_u01_r2_network.node[24].content_store 	decision_yes[24] 	10033
scalar tree_4_3_u01_r2_network.node[24].content_store 	decision_no[24] 	0
scalar tree_4_3_u01_r2_network.node[24].content_store 	decision_ratio[24] 	1
scalar tree_4_3_u01_r2_network.node[25].core_layer 	interests[25] 	13578
scalar tree_4_3_u01_r2_network.node[25].core_layer 	data[25] 	9975
scalar tree_4_3_u01_r2_network.node[25].content_store 	p_hit[25] 	0.26535572249227
scalar tree_4_3_u01_r2_network.node[25].content_store 	hits[25] 	3603
scalar tree_4_3_u01_r2_network.node[25].content_store 	misses[25] 	9975
scalar tree_4_3_u01_r2_network.node[25].content_store 	decision_yes[25] 	9975
scalar tree_4_3_u01_r2_network.node[25].content_store 	decision_no[25] 	0
scalar tree_4_3_u01_r2_network.node[25].content_store 	decision_ratio[25] 	1
scalar tree_4_3_u01_r2_network.node[26].core_layer 	interests[26] 	13690
scalar tree_4_3_u01_r2_network.node[26].core_layer 	data[26] 	10044
scalar tree_4_3_u01_r2_network.node[26].content_store 	p_hit[26] 	0.26603360116874
scalar tree_4_3_u01_r2_network.node[26].content_store 	hits[26] 	3642
scalar tree_4_3_u01_r2_network.node[26].content_store 	misses[26] 	10048
scalar tree_4_3_u01_r2_network.node[26].content_store 	decision_yes[26] 	10044
scalar tree_4_3_u01_r2_network.node[26].content_store 	decision_no[26] 	0
scalar tree_4_3_u01_r2_network.node[26].content_store 	decision_ratio[26] 	1
scalar tree_4_3_u01_r2_network.node[27].core_layer 	interests[27] 	13684
scalar tree_4_3_u01_r2_network.node[27].core_layer 	data[27] 	10007
scalar tree_4_3_u01_r2_network.node[27].content_store 	p_hit[27] 	0.26870798012277
scalar tree_4_3_u01_r2_network.node[27].content_store 	hits[27] 	3677
scalar tree_4_3_u01_r2_network.node[27].content_store 	misses[27] 	10007
scalar tree_4_3_u01_r2_network.node[27].content_store 	decision_yes[27] 	10007
scalar tree_4_3_u01_r2_network.node[27].content_store 	decision_no[27] 	0
scalar tree_4_3_u01_r2_network.node[27].content_store 	decision_ratio[27] 	1
scalar tree_4_3_u01_r2_network.node[28].core_layer 	interests[28] 	14621
scalar tree_4_3_u01_r2_network.node[28].core_layer 	data[28] 	9902
scalar tree_4_3_u01_r2_network.node[28].content_store 	p_hit[28] 	0.32275494152247
scalar tree_4_3_u01_r2_network.node[28].content_store 	hits[28] 	4719
scalar tree_4_3_u01_r2_network.node[28].content_store 	misses[28] 	9902
scalar tree_4_3_u01_r2_network.node[28].content_store 	decision_yes[28] 	9902
scalar tree_4_3_u01_r2_network.node[28].content_store 	decision_no[28] 	0
scalar tree_4_3_u01_r2_network.node[28].content_store 	decision_ratio[28] 	1
scalar tree_4_3_u01_r2_network.node[29].core_layer 	interests[29] 	13597
scalar tree_4_3_u01_r2_network.node[29].core_layer 	data[29] 	10096
scalar tree_4_3_u01_r2_network.node[29].content_store 	p_hit[29] 	0.25748326836802
scalar tree_4_3_u01_r2_network.node[29].content_store 	hits[29] 	3501
scalar tree_4_3_u01_r2_network.node[29].content_store 	misses[29] 	10096
scalar tree_4_3_u01_r2_network.node[29].content_store 	decision_yes[29] 	10096
scalar tree_4_3_u01_r2_network.node[29].content_store 	decision_no[29] 	0
scalar tree_4_3_u01_r2_network.node[29].content_store 	decision_ratio[29] 	1
scalar tree_4_3_u01_r2_network.node[30].core_layer 	interests[30] 	13864
scalar tree_4_3_u01_r2_network.node[30].core_layer 	data[30] 	10271
scalar tree_4_3_u01_r2_network.node[30].content_store 	p_hit[30] 	0.25916041546451
scalar tree_4_3_u01_r2_network.node[30].content_store 	hits[30] 	3593
scalar tree_4_3_u01_r2_network.node[30].content_store 	misses[30] 	10271
scalar tree_4_3_u01_r2_network.node[30].content_store 	decision_yes[30] 	10271
scalar tree_4_3_u01_r2_network.node[30].content_store 	decision_no[30] 	0
scalar tree_4_3_u01_r2_network.node[30].content_store 	decision_ratio[30] 	1
scalar tree_4_3_u01_r2_network.node[31].core_layer 	interests[31] 	15219
scalar tree_4_3_u01_r2_network.node[31].core_layer 	data[31] 	10082
scalar tree_4_3_u01_r2_network.node[31].content_store 	p_hit[31] 	0.33753860306196
scalar tree_4_3_u01_r2_network.node[31].content_store 	hits[31] 	5137
scalar tree_4_3_u01_r2_network.node[31].content_store 	misses[31] 	10082
scalar tree_4_3_u01_r2_network.node[31].content_store 	decision_yes[31] 	10082
scalar tree_4_3_u01_r2_network.node[31].content_store 	decision_no[31] 	0
scalar tree_4_3_u01_r2_network.node[31].content_store 	decision_ratio[31] 	1
scalar tree_4_3_u01_r2_network.node[32].core_layer 	interests[32] 	15346
scalar tree_4_3_u01_r2_network.node[32].core_layer 	data[32] 	10221
scalar tree_4_3_u01_r2_network.node[32].content_store 	p_hit[32] 	0.33389808419132
scalar tree_4_3_u01_r2_network.node[32].content_store 	hits[32] 	5124
scalar tree_4_3_u01_r2_network.node[32].content_store 	misses[32] 	10222
scalar tree_4_3_u01_r2_network.node[32].content_store 	decision_yes[32] 	10221
scalar tree_4_3_u01_r2_network.node[32].content_store 	decision_no[32] 	0
scalar tree_4_3_u01_r2_network.node[32].content_store 	decision_ratio[32] 	1
scalar tree_4_3_u01_r2_network.node[33].core_layer 	interests[33] 	15272
scalar tree_4_3_u01_r2_network.node[33].core_layer 	data[33] 	10023
scalar tree_4_3_u01_r2_network.node[33].content_store 	p_hit[33] 	0.3437008905186
scalar tree_4_3_u01_r2_network.node[33].content_store 	hits[33] 	5249
scalar tree_4_3_u01_r2_network.node[33].content_store 	misses[33] 	10023
scalar tree_4_3_u01_r2_network.node[33].content_store 	decision_yes[33] 	10023
scalar tree_4_3_u01_r2_network.node[33].content_store 	decision_no[33] 	0
scalar tree_4_3_u01_r2_network.node[33].content_store 	decision_ratio[33] 	1
scalar tree_4_3_u01_r2_network.node[34].core_layer 	interests[34] 	13717
scalar tree_4_3_u01_r2_network.node[34].core_layer 	data[34] 	10128
scalar tree_4_3_u01_r2_network.node[34].content_store 	p_hit[34] 	0.26157323029817
scalar tree_4_3_u01_r2_network.node[34].content_store 	hits[34] 	3588
scalar tree_4_3_u01_r2_network.node[34].content_store 	misses[34] 	10129
scalar tree_4_3_u01_r2_network.node[34].content_store 	decision_yes[34] 	10128
scalar tree_4_3_u01_r2_network.node[34].content_store 	decision_no[34] 	0
scalar tree_4_3_u01_r2_network.node[34].content_store 	decision_ratio[34] 	1
scalar tree_4_3_u01_r2_network.node[35].core_layer 	interests[35] 	13675
scalar tree_4_3_u01_r2_network.node[35].core_layer 	data[35] 	10094
scalar tree_4_3_u01_r2_network.node[35].content_store 	p_hit[35] 	0.2618647166362
scalar tree_4_3_u01_r2_network.node[35].content_store 	hits[35] 	3581
scalar tree_4_3_u01_r2_network.node[35].content_store 	misses[35] 	10094
scalar tree_4_3_u01_r2_network.node[35].content_store 	decision_yes[35] 	10094
scalar tree_4_3_u01_r2_network.node[35].content_store 	decision_no[35] 	0
scalar tree_4_3_u01_r2_network.node[35].content_store 	decision_ratio[35] 	1
scalar tree_4_3_u01_r2_network.node[36].core_layer 	interests[36] 	13788
scalar tree_4_3_u01_r2_network.node[36].core_layer 	data[36] 	10158
scalar tree_4_3_u01_r2_network.node[36].content_store 	p_hit[36] 	0.26327241079199
scalar tree_4_3_u01_r2_network.node[36].content_store 	hits[36] 	3630
scalar tree_4_3_u01_r2_network.node[36].content_store 	misses[36] 	10158
scalar tree_4_3_u01_r2_network.node[36].content_store 	decision_yes[36] 	10158
scalar tree_4_3_u01_r2_network.node[36].content_store 	decision_no[36] 	0
scalar tree_4_3_u01_r2_network.node[36].content_store 	decision_ratio[36] 	1
scalar tree_4_3_u01_r2_network.node[37].core_layer 	interests[37] 	13540
scalar tree_4_3_u01_r2_network.node[37].core_layer 	data[37] 	10040
scalar tree_4_3_u01_r2_network.node[37].content_store 	p_hit[37] 	0.2582717872969
scalar tree_4_3_u01_r2_network.node[37].content_store 	hits[37] 	3497
scalar tree_4_3_u01_r2_network.node[37].content_store 	misses[37] 	10043
scalar tree_4_3_u01_r2_network.node[37].content_store 	decision_yes[37] 	10040
scalar tree_4_3_u01_r2_network.node[37].content_store 	decision_no[37] 	0
scalar tree_4_3_u01_r2_network.node[37].content_store 	decision_ratio[37] 	1
scalar tree_4_3_u01_r2_network.node[38].core_layer 	interests[38] 	13586
scalar tree_4_3_u01_r2_network.node[38].core_layer 	data[38] 	10063
scalar tree_4_3_u01_r2_network.node[38].content_store 	p_hit[38] 	0.2592374503165
scalar tree_4_3_u01_r2_network.node[38].content_store 	hits[38] 	3522
scalar tree_4_3_u01_r2_network.node[38].content_store 	misses[38] 	10064
scalar tree_4_3_u01_r2_network.node[38].content_store 	decision_yes[38] 	10063
scalar tree_4_3_u01_r2_network.node[38].content_store 	decision_no[38] 	0
scalar tree_4_3_u01_r2_network.node[38].content_store 	decision_ratio[38] 	1
scalar tree_4_3_u01_r2_network.node[39].core_layer 	interests[39] 	13654
scalar tree_4_3_u01_r2_network.node[39].core_layer 	data[39] 	10159
scalar tree_4_3_u01_r2_network.node[39].content_store 	p_hit[39] 	0.25596894682877
scalar tree_4_3_u01_r2_network.node[39].content_store 	hits[39] 	3495
scalar tree_4_3_u01_r2_network.node[39].content_store 	misses[39] 	10159
scalar tree_4_3_u01_r2_network.node[39].content_store 	decision_yes[39] 	10159
scalar tree_4_3_u01_r2_network.node[39].content_store 	decision_no[39] 	0
scalar tree_4_3_u01_r2_network.node[39].content_store 	decision_ratio[39] 	1
scalar tree_4_3_u01_r2_network.client[13] 	hdistance[13] 	3.1671350636469
scalar tree_4_3_u01_r2_network.client[13] 	downloads[13] 	12098
scalar tree_4_3_u01_r2_network.client[13] 	avg_time[13] 	0.00500946534
scalar tree_4_3_u01_r2_network.client[14] 	hdistance[14] 	3.1837672281776
scalar tree_4_3_u01_r2_network.client[14] 	downloads[14] 	11754
scalar tree_4_3_u01_r2_network.client[14] 	avg_time[14] 	0.005021736974
scalar tree_4_3_u01_r2_network.client[15] 	hdistance[15] 	3.163593300626
scalar tree_4_3_u01_r2_network.client[15] 	downloads[15] 	11822
scalar tree_4_3_u01_r2_network.client[15] 	avg_time[15] 	0.004993546697
scalar tree_4_3_u01_r2_network.client[16] 	hdistance[16] 	3.0957008730028
scalar tree_4_3_u01_r2_network.client[16] 	downloads[16] 	12142
scalar tree_4_3_u01_r2_network.client[16] 	avg_time[16] 	0.004863074152
scalar tree_4_3_u01_r2_network.client[17] 	hdistance[17] 	3.2176322418136
scalar tree_4_3_u01_r2_network.client[17] 	downloads[17] 	11910
scalar tree_4_3_u01_r2_network.client[17] 	avg_time[17] 	0.00510337623
scalar tree_4_3_u01_r2_network.client[18] 	hdistance[18] 	3.1873536299766
scalar tree_4_3_u01_r2_network.client[18] 	downloads[18] 	11956
scalar tree_4_3_u01_r2_network.client[18] 	avg_time[18] 	0.005064072179
scalar tree_4_3_u01_r2_network.client[19] 	hdistance[19] 	3.1915424956297
scalar tree_4_3_u01_r2_network.client[19] 	downloads[19] 	12013
scalar tree_4_3_u01_r2_network.client[19] 	avg_time[19] 	0.005064010994
scalar tree_4_3_u01_r2_network.client[20] 	hdistance[20] 	3.2253962871917
scalar tree_4_3_u01_r2_network.client[20] 	downloads[20] 	11797
scalar tree_4_3_u01_r2_network.client[20] 	avg_time[20] 	0.005121370643
scalar tree_4_3_u01_r2_network.client[21] 	hdistance[21] 	3.2220062536973
scalar tree_4_3_u01_r2_network.client[21] 	downloads[21] 	11833
scalar tree_4_3_u01_r2_network.client[21] 	avg_time[21] 	0.005103851133
scalar tree_4_3_u01_r2_network.client[22] 	hdistance[22] 	3.1771656819506
scalar tree_4_3_u01_r2_network.client[22] 	downloads[22] 	12017
scalar tree_4_3_u01_r2_network.client[22] 	avg_time[22] 	0.004971090466
scalar tree_4_3_u01_r2_network.client[23] 	hdistance[23] 	3.1466249072777
scalar tree_4_3_u01_r2_network.client[23] 	downloads[23] 	12133
scalar tree_4_3_u01_r2_network.client[23] 	avg_time[23] 	0.004930378796
scalar tree_4_3_u01_r2_network.client[24] 	hdistance[24] 	3.1547182394131
scalar tree_4_3_u01_r2_network.client[24] 	downloads[24] 	11996
scalar tree_4_3_u01_r2_network.client[24] 	avg_time[24] 	0.004939899271
scalar tree_4_3_u01_r2_network.client[25] 	hdistance[25] 	3.206085056312
scalar tree_4_3_u01_r2_network.client[25] 	downloads[25] 	11898
scalar tree_4_3_u01_r2_network.client[25] 	avg_time[25] 	0.005037281849
scalar tree_4_3_u01_r2_network.client[26] 	hdistance[26] 	3.2007332722273
scalar tree_4_3_u01_r2_network.client[26] 	downloads[26] 	12001
scalar tree_4_3_u01_r2_network.client[26] 	avg_time[26] 	0.005034809073
scalar tree_4_3_u01_r2_network.client[27] 	hdistance[27] 	3.1907927538641
scalar tree_4_3_u01_r2_network.client[27] 	downloads[27] 	12034
scalar tree_4_3_u01_r2_network.client[27] 	avg_time[27] 	0.005016943616
scalar tree_4_3_u01_r2_network.client[28] 	hdistance[28] 	3.0899781769347
scalar tree_4_3_u01_r2_network.client[28] 	downloads[28] 	11914
scalar tree_4_3_u01_r2_network.client[28] 	avg_time[28] 	0.004806305945
scalar tree_4_3_u01_r2_network.client[29] 	hdistance[29] 	3.2050515121303
scalar tree_4_3_u01_r2_network.client[29] 	downloads[29] 	12036
scalar tree_4_3_u01_r2_network.client[29] 	avg_time[29] 	0.00503092637
scalar tree_4_3_u01_r2_network.client[30] 	hdistance[30] 	3.2007507752571
scalar tree_4_3_u01_r2_network.client[30] 	downloads[30] 	12254
scalar tree_4_3_u01_r2_network.client[30] 	avg_time[30] 	0.005020948756
scalar tree_4_3_u01_r2_network.client[31] 	hdistance[31] 	3.190768719907
scalar tree_4_3_u01_r2_network.client[31] 	downloads[31] 	12046
scalar tree_4_3_u01_r2_network.client[31] 	avg_time[31] 	0.005110407101
scalar tree_4_3_u01_r2_network.client[32] 	hdistance[32] 	3.2075626798192
scalar tree_4_3_u01_r2_network.client[32] 	downloads[32] 	12165
scalar tree_4_3_u01_r2_network.client[32] 	avg_time[32] 	0.0051591829
scalar tree_4_3_u01_r2_network.client[33] 	hdistance[33] 	3.1748878923767
scalar tree_4_3_u01_r2_network.client[33] 	downloads[33] 	12042
scalar tree_4_3_u01_r2_network.client[33] 	avg_time[33] 	0.005097478251
scalar tree_4_3_u01_r2_network.client[34] 	hdistance[34] 	3.2136950049619
scalar tree_4_3_u01_r2_network.client[34] 	downloads[34] 	12092
scalar tree_4_3_u01_r2_network.client[34] 	avg_time[34] 	0.005049997329
scalar tree_4_3_u01_r2_network.client[35] 	hdistance[35] 	3.202489626556
scalar tree_4_3_u01_r2_network.client[35] 	downloads[35] 	12050
scalar tree_4_3_u01_r2_network.client[35] 	avg_time[35] 	0.00503684342
scalar tree_4_3_u01_r2_network.client[36] 	hdistance[36] 	3.1982552876306
scalar tree_4_3_u01_r2_network.client[36] 	downloads[36] 	12151
scalar tree_4_3_u01_r2_network.client[36] 	avg_time[36] 	0.005034039014
scalar tree_4_3_u01_r2_network.client[37] 	hdistance[37] 	3.209717815996
scalar tree_4_3_u01_r2_network.client[37] 	downloads[37] 	11978
scalar tree_4_3_u01_r2_network.client[37] 	avg_time[37] 	0.005045489298
scalar tree_4_3_u01_r2_network.client[38] 	hdistance[38] 	3.2249268088666
scalar tree_4_3_u01_r2_network.client[38] 	downloads[38] 	11955
scalar tree_4_3_u01_r2_network.client[38] 	avg_time[38] 	0.005069624154
scalar tree_4_3_u01_r2_network.client[39] 	hdistance[39] 	3.2316487158244
scalar tree_4_3_u01_r2_network.client[39] 	downloads[39] 	12070
scalar tree_4_3_u01_r2_network.client[39] 	avg_time[39] 	0.005074544871
