version 2
run General-184-20160901-00:04:47-8710
attr a 0.9
attr cd ffc0.25
attr configname General
attr cr lru
attr datetime 20160901-00:04:47
attr experiment General
attr fsize 1
attr inifile hw5115/scenario_Y/omnetp.ini
attr iterationvars "$name=tree_4_3, $un=03, $rep=2, $cd=ffc0.25, $cr=lru, $fsize=1, $a=0.9, $sl=nrr, $ttl=1000, $variance=0.05"
attr iterationvars2 "$name=tree_4_3, $un=03, $rep=2, $cd=ffc0.25, $cr=lru, $fsize=1, $a=0.9, $sl=nrr, $ttl=1000, $variance=0.05, $repetition=0"
attr measurement "$name=tree_4_3, $un=03, $rep=2, $cd=ffc0.25, $cr=lru, $fsize=1, $a=0.9, $sl=nrr, $ttl=1000, $variance=0.05"
attr name tree_4_3
attr network networks.${name}_u${un}_r${rep}_network
attr processid 8710
attr rep 2
attr repetition 0
attr replication #0
attr resultdir results
attr runnumber 184
attr seedset 2
attr sl nrr
attr ttl 1000
attr un 03
attr variance 0.05

scalar . 	a 	0.9
scalar . 	fsize 	1
scalar . 	rep 	2
scalar . 	ttl 	1000
scalar . 	un 	03
scalar . 	variance 	0.05
scalar tree_4_3_u03_r2_network.content_distribution 	repo-0 	0
scalar tree_4_3_u03_r2_network.content_distribution 	client-0 	13
scalar tree_4_3_u03_r2_network.content_distribution 	client-1 	14
scalar tree_4_3_u03_r2_network.content_distribution 	client-2 	15
scalar tree_4_3_u03_r2_network.content_distribution 	client-3 	16
scalar tree_4_3_u03_r2_network.content_distribution 	client-4 	17
scalar tree_4_3_u03_r2_network.content_distribution 	client-5 	18
scalar tree_4_3_u03_r2_network.content_distribution 	client-6 	19
scalar tree_4_3_u03_r2_network.content_distribution 	client-7 	20
scalar tree_4_3_u03_r2_network.content_distribution 	client-8 	21
scalar tree_4_3_u03_r2_network.content_distribution 	client-9 	22
scalar tree_4_3_u03_r2_network.content_distribution 	client-10 	23
scalar tree_4_3_u03_r2_network.content_distribution 	client-11 	24
scalar tree_4_3_u03_r2_network.content_distribution 	client-12 	25
scalar tree_4_3_u03_r2_network.content_distribution 	client-13 	26
scalar tree_4_3_u03_r2_network.content_distribution 	client-14 	27
scalar tree_4_3_u03_r2_network.content_distribution 	client-15 	28
scalar tree_4_3_u03_r2_network.content_distribution 	client-16 	29
scalar tree_4_3_u03_r2_network.content_distribution 	client-17 	30
scalar tree_4_3_u03_r2_network.content_distribution 	client-18 	31
scalar tree_4_3_u03_r2_network.content_distribution 	client-19 	32
scalar tree_4_3_u03_r2_network.content_distribution 	client-20 	33
scalar tree_4_3_u03_r2_network.content_distribution 	client-21 	34
scalar tree_4_3_u03_r2_network.content_distribution 	client-22 	35
scalar tree_4_3_u03_r2_network.content_distribution 	client-23 	36
scalar tree_4_3_u03_r2_network.content_distribution 	client-24 	37
scalar tree_4_3_u03_r2_network.content_distribution 	client-25 	38
scalar tree_4_3_u03_r2_network.content_distribution 	client-26 	39
scalar tree_4_3_u03_r2_network.content_distribution 	repo-0_card 	100000
scalar tree_4_3_u03_r2_network.content_distribution 	repo-0_price 	0
scalar tree_4_3_u03_r2_network.statistics 	stabilization_time 	2035.1
scalar tree_4_3_u03_r2_network.statistics 	p_hit 	0.2291775176701
scalar tree_4_3_u03_r2_network.statistics 	interests 	24638.15
scalar tree_4_3_u03_r2_network.statistics 	data 	16558.75
scalar tree_4_3_u03_r2_network.statistics 	hdistance 	2.629521142875
scalar tree_4_3_u03_r2_network.statistics 	avg_time 	0.004098985379
scalar tree_4_3_u03_r2_network.statistics 	downloads 	323172
scalar tree_4_3_u03_r2_network.statistics 	total_cost 	0
scalar tree_4_3_u03_r2_network.statistics 	total_replicas 	100000
scalar tree_4_3_u03_r2_network.statistics 	inner_hit 	0.41996831408662
scalar tree_4_3_u03_r2_network.node[0].core_layer 	interests[0] 	190978
scalar tree_4_3_u03_r2_network.node[0].core_layer 	repo_load[0] 	187450
scalar tree_4_3_u03_r2_network.node[0].core_layer 	data[0] 	0
scalar tree_4_3_u03_r2_network.node[0].core_layer 	repo_int[0] 	187450
scalar tree_4_3_u03_r2_network.node[0].content_store 	p_hit[0] 	0.018473332006828
scalar tree_4_3_u03_r2_network.node[0].content_store 	hits[0] 	3528
scalar tree_4_3_u03_r2_network.node[0].content_store 	misses[0] 	187450
scalar tree_4_3_u03_r2_network.node[0].content_store 	decision_yes[0] 	216
scalar tree_4_3_u03_r2_network.node[0].content_store 	decision_no[0] 	187234
scalar tree_4_3_u03_r2_network.node[0].content_store 	decision_ratio[0] 	0.0011523072819419
scalar tree_4_3_u03_r2_network.node[1].core_layer 	interests[1] 	69765
scalar tree_4_3_u03_r2_network.node[1].core_layer 	data[1] 	67568
scalar tree_4_3_u03_r2_network.node[1].content_store 	p_hit[1] 	0.031462767863542
scalar tree_4_3_u03_r2_network.node[1].content_store 	hits[1] 	2195
scalar tree_4_3_u03_r2_network.node[1].content_store 	misses[1] 	67570
scalar tree_4_3_u03_r2_network.node[1].content_store 	decision_yes[1] 	91
scalar tree_4_3_u03_r2_network.node[1].content_store 	decision_no[1] 	67477
scalar tree_4_3_u03_r2_network.node[1].content_store 	decision_ratio[1] 	0.0013467913805352
scalar tree_4_3_u03_r2_network.node[2].core_layer 	interests[2] 	90412
scalar tree_4_3_u03_r2_network.node[2].core_layer 	data[2] 	87711
scalar tree_4_3_u03_r2_network.node[2].content_store 	p_hit[2] 	0.029863292483299
scalar tree_4_3_u03_r2_network.node[2].content_store 	hits[2] 	2700
scalar tree_4_3_u03_r2_network.node[2].content_store 	misses[2] 	87712
scalar tree_4_3_u03_r2_network.node[2].content_store 	decision_yes[2] 	115
scalar tree_4_3_u03_r2_network.node[2].content_store 	decision_no[2] 	87596
scalar tree_4_3_u03_r2_network.node[2].content_store 	decision_ratio[2] 	0.0013111240323335
scalar tree_4_3_u03_r2_network.node[3].core_layer 	interests[3] 	49956
scalar tree_4_3_u03_r2_network.node[3].core_layer 	data[3] 	46792
scalar tree_4_3_u03_r2_network.node[3].content_store 	p_hit[3] 	0.063335735447194
scalar tree_4_3_u03_r2_network.node[3].content_store 	hits[3] 	3164
scalar tree_4_3_u03_r2_network.node[3].content_store 	misses[3] 	46792
scalar tree_4_3_u03_r2_network.node[3].content_store 	decision_yes[3] 	68
scalar tree_4_3_u03_r2_network.node[3].content_store 	decision_no[3] 	46724
scalar tree_4_3_u03_r2_network.node[3].content_store 	decision_ratio[3] 	0.0014532398700633
scalar tree_4_3_u03_r2_network.node[4].core_layer 	interests[4] 	43630
scalar tree_4_3_u03_r2_network.node[4].core_layer 	data[4] 	40820
scalar tree_4_3_u03_r2_network.node[4].content_store 	p_hit[4] 	0.064359385743754
scalar tree_4_3_u03_r2_network.node[4].content_store 	hits[4] 	2808
scalar tree_4_3_u03_r2_network.node[4].content_store 	misses[4] 	40822
scalar tree_4_3_u03_r2_network.node[4].content_store 	decision_yes[4] 	86
scalar tree_4_3_u03_r2_network.node[4].content_store 	decision_no[4] 	40734
scalar tree_4_3_u03_r2_network.node[4].content_store 	decision_ratio[4] 	0.0021068103870652
scalar tree_4_3_u03_r2_network.node[5].core_layer 	interests[5] 	27841
scalar tree_4_3_u03_r2_network.node[5].core_layer 	data[5] 	25181
scalar tree_4_3_u03_r2_network.node[5].content_store 	p_hit[5] 	0.095542545167199
scalar tree_4_3_u03_r2_network.node[5].content_store 	hits[5] 	2660
scalar tree_4_3_u03_r2_network.node[5].content_store 	misses[5] 	25181
scalar tree_4_3_u03_r2_network.node[5].content_store 	decision_yes[5] 	51
scalar tree_4_3_u03_r2_network.node[5].content_store 	decision_no[5] 	25130
scalar tree_4_3_u03_r2_network.node[5].content_store 	decision_ratio[5] 	0.0020253365632818
scalar tree_4_3_u03_r2_network.node[6].core_layer 	interests[6] 	10384
scalar tree_4_3_u03_r2_network.node[6].core_layer 	data[6] 	8641
scalar tree_4_3_u03_r2_network.node[6].content_store 	p_hit[6] 	0.16785439137134
scalar tree_4_3_u03_r2_network.node[6].content_store 	hits[6] 	1743
scalar tree_4_3_u03_r2_network.node[6].content_store 	misses[6] 	8641
scalar tree_4_3_u03_r2_network.node[6].content_store 	decision_yes[6] 	32
scalar tree_4_3_u03_r2_network.node[6].content_store 	decision_no[6] 	8609
scalar tree_4_3_u03_r2_network.node[6].content_store 	decision_ratio[6] 	0.0037032750839023
scalar tree_4_3_u03_r2_network.node[7].core_layer 	interests[7] 	42852
scalar tree_4_3_u03_r2_network.node[7].core_layer 	data[7] 	39844
scalar tree_4_3_u03_r2_network.node[7].content_store 	p_hit[7] 	0.070218426211145
scalar tree_4_3_u03_r2_network.node[7].content_store 	hits[7] 	3009
scalar tree_4_3_u03_r2_network.node[7].content_store 	misses[7] 	39843
scalar tree_4_3_u03_r2_network.node[7].content_store 	decision_yes[7] 	82
scalar tree_4_3_u03_r2_network.node[7].content_store 	decision_no[7] 	39762
scalar tree_4_3_u03_r2_network.node[7].content_store 	decision_ratio[7] 	0.0020580263025801
scalar tree_4_3_u03_r2_network.node[8].core_layer 	interests[8] 	19421
scalar tree_4_3_u03_r2_network.node[8].core_layer 	data[8] 	16915
scalar tree_4_3_u03_r2_network.node[8].content_store 	p_hit[8] 	0.12903558004222
scalar tree_4_3_u03_r2_network.node[8].content_store 	hits[8] 	2506
scalar tree_4_3_u03_r2_network.node[8].content_store 	misses[8] 	16915
scalar tree_4_3_u03_r2_network.node[8].content_store 	decision_yes[8] 	37
scalar tree_4_3_u03_r2_network.node[8].content_store 	decision_no[8] 	16878
scalar tree_4_3_u03_r2_network.node[8].content_store 	decision_ratio[8] 	0.0021874076263671
scalar tree_4_3_u03_r2_network.node[9].core_layer 	interests[9] 	20682
scalar tree_4_3_u03_r2_network.node[9].core_layer 	data[9] 	17551
scalar tree_4_3_u03_r2_network.node[9].content_store 	p_hit[9] 	0.15138768010831
scalar tree_4_3_u03_r2_network.node[9].content_store 	hits[9] 	3131
scalar tree_4_3_u03_r2_network.node[9].content_store 	misses[9] 	17551
scalar tree_4_3_u03_r2_network.node[9].content_store 	decision_yes[9] 	53
scalar tree_4_3_u03_r2_network.node[9].content_store 	decision_no[9] 	17498
scalar tree_4_3_u03_r2_network.node[9].content_store 	decision_ratio[9] 	0.003019770953222
scalar tree_4_3_u03_r2_network.node[10].core_layer 	interests[10] 	27096
scalar tree_4_3_u03_r2_network.node[10].core_layer 	data[10] 	24968
scalar tree_4_3_u03_r2_network.node[10].content_store 	p_hit[10] 	0.078498671390611
scalar tree_4_3_u03_r2_network.node[10].content_store 	hits[10] 	2127
scalar tree_4_3_u03_r2_network.node[10].content_store 	misses[10] 	24969
scalar tree_4_3_u03_r2_network.node[10].content_store 	decision_yes[10] 	46
scalar tree_4_3_u03_r2_network.node[10].content_store 	decision_no[10] 	24922
scalar tree_4_3_u03_r2_network.node[10].content_store 	decision_ratio[10] 	0.0018423582185197
scalar tree_4_3_u03_r2_network.node[11].core_layer 	interests[11] 	28463
scalar tree_4_3_u03_r2_network.node[11].core_layer 	data[11] 	25487
scalar tree_4_3_u03_r2_network.node[11].content_store 	p_hit[11] 	0.10455679302955
scalar tree_4_3_u03_r2_network.node[11].content_store 	hits[11] 	2976
scalar tree_4_3_u03_r2_network.node[11].content_store 	misses[11] 	25487
scalar tree_4_3_u03_r2_network.node[11].content_store 	decision_yes[11] 	64
scalar tree_4_3_u03_r2_network.node[11].content_store 	decision_no[11] 	25423
scalar tree_4_3_u03_r2_network.node[11].content_store 	decision_ratio[11] 	0.0025110840820811
scalar tree_4_3_u03_r2_network.node[12].core_layer 	interests[12] 	26933
scalar tree_4_3_u03_r2_network.node[12].core_layer 	data[12] 	24663
scalar tree_4_3_u03_r2_network.node[12].content_store 	p_hit[12] 	0.084246092154606
scalar tree_4_3_u03_r2_network.node[12].content_store 	hits[12] 	2269
scalar tree_4_3_u03_r2_network.node[12].content_store 	misses[12] 	24664
scalar tree_4_3_u03_r2_network.node[12].content_store 	decision_yes[12] 	58
scalar tree_4_3_u03_r2_network.node[12].content_store 	decision_no[12] 	24605
scalar tree_4_3_u03_r2_network.node[12].content_store 	decision_ratio[12] 	0.0023517009285164
scalar tree_4_3_u03_r2_network.node[13].core_layer 	interests[13] 	12507
scalar tree_4_3_u03_r2_network.node[13].core_layer 	data[13] 	8841
scalar tree_4_3_u03_r2_network.node[13].content_store 	p_hit[13] 	0.29311585512113
scalar tree_4_3_u03_r2_network.node[13].content_store 	hits[13] 	3666
scalar tree_4_3_u03_r2_network.node[13].content_store 	misses[13] 	8841
scalar tree_4_3_u03_r2_network.node[13].content_store 	decision_yes[13] 	28
scalar tree_4_3_u03_r2_network.node[13].content_store 	decision_no[13] 	8813
scalar tree_4_3_u03_r2_network.node[13].content_store 	decision_ratio[13] 	0.0031670625494854
scalar tree_4_3_u03_r2_network.node[14].core_layer 	interests[14] 	12488
scalar tree_4_3_u03_r2_network.node[14].core_layer 	data[14] 	8795
scalar tree_4_3_u03_r2_network.node[14].content_store 	p_hit[14] 	0.29564381806534
scalar tree_4_3_u03_r2_network.node[14].content_store 	hits[14] 	3692
scalar tree_4_3_u03_r2_network.node[14].content_store 	misses[14] 	8796
scalar tree_4_3_u03_r2_network.node[14].content_store 	decision_yes[14] 	26
scalar tree_4_3_u03_r2_network.node[14].content_store 	decision_no[14] 	8769
scalar tree_4_3_u03_r2_network.node[14].content_store 	decision_ratio[14] 	0.0029562251279136
scalar tree_4_3_u03_r2_network.node[15].core_layer 	interests[15] 	12470
scalar tree_4_3_u03_r2_network.node[15].core_layer 	data[15] 	8684
scalar tree_4_3_u03_r2_network.node[15].content_store 	p_hit[15] 	0.30352846832398
scalar tree_4_3_u03_r2_network.node[15].content_store 	hits[15] 	3785
scalar tree_4_3_u03_r2_network.node[15].content_store 	misses[15] 	8685
scalar tree_4_3_u03_r2_network.node[15].content_store 	decision_yes[15] 	32
scalar tree_4_3_u03_r2_network.node[15].content_store 	decision_no[15] 	8652
scalar tree_4_3_u03_r2_network.node[15].content_store 	decision_ratio[15] 	0.0036849378166743
scalar tree_4_3_u03_r2_network.node[16].core_layer 	interests[16] 	12940
scalar tree_4_3_u03_r2_network.node[16].core_layer 	data[16] 	8680
scalar tree_4_3_u03_r2_network.node[16].content_store 	p_hit[16] 	0.32913446676971
scalar tree_4_3_u03_r2_network.node[16].content_store 	hits[16] 	4259
scalar tree_4_3_u03_r2_network.node[16].content_store 	misses[16] 	8681
scalar tree_4_3_u03_r2_network.node[16].content_store 	decision_yes[16] 	32
scalar tree_4_3_u03_r2_network.node[16].content_store 	decision_no[16] 	8648
scalar tree_4_3_u03_r2_network.node[16].content_store 	decision_ratio[16] 	0.0036866359447005
scalar tree_4_3_u03_r2_network.node[17].core_layer 	interests[17] 	12428
scalar tree_4_3_u03_r2_network.node[17].core_layer 	data[17] 	8833
scalar tree_4_3_u03_r2_network.node[17].content_store 	p_hit[17] 	0.28926617315739
scalar tree_4_3_u03_r2_network.node[17].content_store 	hits[17] 	3595
scalar tree_4_3_u03_r2_network.node[17].content_store 	misses[17] 	8833
scalar tree_4_3_u03_r2_network.node[17].content_store 	decision_yes[17] 	24
scalar tree_4_3_u03_r2_network.node[17].content_store 	decision_no[17] 	8809
scalar tree_4_3_u03_r2_network.node[17].content_store 	decision_ratio[17] 	0.0027170836635345
scalar tree_4_3_u03_r2_network.node[18].core_layer 	interests[18] 	12717
scalar tree_4_3_u03_r2_network.node[18].core_layer 	data[18] 	9038
scalar tree_4_3_u03_r2_network.node[18].content_store 	p_hit[18] 	0.28929779035936
scalar tree_4_3_u03_r2_network.node[18].content_store 	hits[18] 	3679
scalar tree_4_3_u03_r2_network.node[18].content_store 	misses[18] 	9038
scalar tree_4_3_u03_r2_network.node[18].content_store 	decision_yes[18] 	31
scalar tree_4_3_u03_r2_network.node[18].content_store 	decision_no[18] 	9007
scalar tree_4_3_u03_r2_network.node[18].content_store 	decision_ratio[18] 	0.0034299623810578
scalar tree_4_3_u03_r2_network.node[19].core_layer 	interests[19] 	12892
scalar tree_4_3_u03_r2_network.node[19].core_layer 	data[19] 	8984
scalar tree_4_3_u03_r2_network.node[19].content_store 	p_hit[19] 	0.30313372634192
scalar tree_4_3_u03_r2_network.node[19].content_store 	hits[19] 	3908
scalar tree_4_3_u03_r2_network.node[19].content_store 	misses[19] 	8984
scalar tree_4_3_u03_r2_network.node[19].content_store 	decision_yes[19] 	29
scalar tree_4_3_u03_r2_network.node[19].content_store 	decision_no[19] 	8955
scalar tree_4_3_u03_r2_network.node[19].content_store 	decision_ratio[19] 	0.0032279608192342
scalar tree_4_3_u03_r2_network.node[20].core_layer 	interests[20] 	12693
scalar tree_4_3_u03_r2_network.node[20].core_layer 	data[20] 	8886
scalar tree_4_3_u03_r2_network.node[20].content_store 	p_hit[20] 	0.29992909477665
scalar tree_4_3_u03_r2_network.node[20].content_store 	hits[20] 	3807
scalar tree_4_3_u03_r2_network.node[20].content_store 	misses[20] 	8886
scalar tree_4_3_u03_r2_network.node[20].content_store 	decision_yes[20] 	27
scalar tree_4_3_u03_r2_network.node[20].content_store 	decision_no[20] 	8859
scalar tree_4_3_u03_r2_network.node[20].content_store 	decision_ratio[20] 	0.0030384875084402
scalar tree_4_3_u03_r2_network.node[21].core_layer 	interests[21] 	12144
scalar tree_4_3_u03_r2_network.node[21].core_layer 	data[21] 	8751
scalar tree_4_3_u03_r2_network.node[21].content_store 	p_hit[21] 	0.27939723320158
scalar tree_4_3_u03_r2_network.node[21].content_store 	hits[21] 	3393
scalar tree_4_3_u03_r2_network.node[21].content_store 	misses[21] 	8751
scalar tree_4_3_u03_r2_network.node[21].content_store 	decision_yes[21] 	31
scalar tree_4_3_u03_r2_network.node[21].content_store 	decision_no[21] 	8720
scalar tree_4_3_u03_r2_network.node[21].content_store 	decision_ratio[21] 	0.0035424522911667
scalar tree_4_3_u03_r2_network.node[22].core_layer 	interests[22] 	12327
scalar tree_4_3_u03_r2_network.node[22].core_layer 	data[22] 	8607
scalar tree_4_3_u03_r2_network.node[22].content_store 	p_hit[22] 	0.30177658797761
scalar tree_4_3_u03_r2_network.node[22].content_store 	hits[22] 	3720
scalar tree_4_3_u03_r2_network.node[22].content_store 	misses[22] 	8607
scalar tree_4_3_u03_r2_network.node[22].content_store 	decision_yes[22] 	34
scalar tree_4_3_u03_r2_network.node[22].content_store 	decision_no[22] 	8573
scalar tree_4_3_u03_r2_network.node[22].content_store 	decision_ratio[22] 	0.0039502730335773
scalar tree_4_3_u03_r2_network.node[23].core_layer 	interests[23] 	12473
scalar tree_4_3_u03_r2_network.node[23].core_layer 	data[23] 	8492
scalar tree_4_3_u03_r2_network.node[23].content_store 	p_hit[23] 	0.31916940591678
scalar tree_4_3_u03_r2_network.node[23].content_store 	hits[23] 	3981
scalar tree_4_3_u03_r2_network.node[23].content_store 	misses[23] 	8492
scalar tree_4_3_u03_r2_network.node[23].content_store 	decision_yes[23] 	32
scalar tree_4_3_u03_r2_network.node[23].content_store 	decision_no[23] 	8460
scalar tree_4_3_u03_r2_network.node[23].content_store 	decision_ratio[23] 	0.0037682524729157
scalar tree_4_3_u03_r2_network.node[24].core_layer 	interests[24] 	12612
scalar tree_4_3_u03_r2_network.node[24].core_layer 	data[24] 	8905
scalar tree_4_3_u03_r2_network.node[24].content_store 	p_hit[24] 	0.29392641928322
scalar tree_4_3_u03_r2_network.node[24].content_store 	hits[24] 	3707
scalar tree_4_3_u03_r2_network.node[24].content_store 	misses[24] 	8905
scalar tree_4_3_u03_r2_network.node[24].content_store 	decision_yes[24] 	29
scalar tree_4_3_u03_r2_network.node[24].content_store 	decision_no[24] 	8876
scalar tree_4_3_u03_r2_network.node[24].content_store 	decision_ratio[24] 	0.0032565974171814
scalar tree_4_3_u03_r2_network.node[25].core_layer 	interests[25] 	12678
scalar tree_4_3_u03_r2_network.node[25].core_layer 	data[25] 	8705
scalar tree_4_3_u03_r2_network.node[25].content_store 	p_hit[25] 	0.31345638113267
scalar tree_4_3_u03_r2_network.node[25].content_store 	hits[25] 	3974
scalar tree_4_3_u03_r2_network.node[25].content_store 	misses[25] 	8704
scalar tree_4_3_u03_r2_network.node[25].content_store 	decision_yes[25] 	19
scalar tree_4_3_u03_r2_network.node[25].content_store 	decision_no[25] 	8686
scalar tree_4_3_u03_r2_network.node[25].content_store 	decision_ratio[25] 	0.0021826536473291
scalar tree_4_3_u03_r2_network.node[26].core_layer 	interests[26] 	12244
scalar tree_4_3_u03_r2_network.node[26].core_layer 	data[26] 	8673
scalar tree_4_3_u03_r2_network.node[26].content_store 	p_hit[26] 	0.29165305455733
scalar tree_4_3_u03_r2_network.node[26].content_store 	hits[26] 	3571
scalar tree_4_3_u03_r2_network.node[26].content_store 	misses[26] 	8673
scalar tree_4_3_u03_r2_network.node[26].content_store 	decision_yes[26] 	23
scalar tree_4_3_u03_r2_network.node[26].content_store 	decision_no[26] 	8650
scalar tree_4_3_u03_r2_network.node[26].content_store 	decision_ratio[26] 	0.0026519082209155
scalar tree_4_3_u03_r2_network.node[27].core_layer 	interests[27] 	12418
scalar tree_4_3_u03_r2_network.node[27].core_layer 	data[27] 	8771
scalar tree_4_3_u03_r2_network.node[27].content_store 	p_hit[27] 	0.29368658399098
scalar tree_4_3_u03_r2_network.node[27].content_store 	hits[27] 	3647
scalar tree_4_3_u03_r2_network.node[27].content_store 	misses[27] 	8771
scalar tree_4_3_u03_r2_network.node[27].content_store 	decision_yes[27] 	28
scalar tree_4_3_u03_r2_network.node[27].content_store 	decision_no[27] 	8743
scalar tree_4_3_u03_r2_network.node[27].content_store 	decision_ratio[27] 	0.0031923383878691
scalar tree_4_3_u03_r2_network.node[28].core_layer 	interests[28] 	12988
scalar tree_4_3_u03_r2_network.node[28].core_layer 	data[28] 	8894
scalar tree_4_3_u03_r2_network.node[28].content_store 	p_hit[28] 	0.31521404373268
scalar tree_4_3_u03_r2_network.node[28].content_store 	hits[28] 	4094
scalar tree_4_3_u03_r2_network.node[28].content_store 	misses[28] 	8894
scalar tree_4_3_u03_r2_network.node[28].content_store 	decision_yes[28] 	34
scalar tree_4_3_u03_r2_network.node[28].content_store 	decision_no[28] 	8860
scalar tree_4_3_u03_r2_network.node[28].content_store 	decision_ratio[28] 	0.0038228018889139
scalar tree_4_3_u03_r2_network.node[29].core_layer 	interests[29] 	12591
scalar tree_4_3_u03_r2_network.node[29].core_layer 	data[29] 	8866
scalar tree_4_3_u03_r2_network.node[29].content_store 	p_hit[29] 	0.29584623937733
scalar tree_4_3_u03_r2_network.node[29].content_store 	hits[29] 	3725
scalar tree_4_3_u03_r2_network.node[29].content_store 	misses[29] 	8866
scalar tree_4_3_u03_r2_network.node[29].content_store 	decision_yes[29] 	35
scalar tree_4_3_u03_r2_network.node[29].content_store 	decision_no[29] 	8831
scalar tree_4_3_u03_r2_network.node[29].content_store 	decision_ratio[29] 	0.0039476652379878
scalar tree_4_3_u03_r2_network.node[30].core_layer 	interests[30] 	12290
scalar tree_4_3_u03_r2_network.node[30].core_layer 	data[30] 	8662
scalar tree_4_3_u03_r2_network.node[30].content_store 	p_hit[30] 	0.29519934906428
scalar tree_4_3_u03_r2_network.node[30].content_store 	hits[30] 	3628
scalar tree_4_3_u03_r2_network.node[30].content_store 	misses[30] 	8662
scalar tree_4_3_u03_r2_network.node[30].content_store 	decision_yes[30] 	24
scalar tree_4_3_u03_r2_network.node[30].content_store 	decision_no[30] 	8638
scalar tree_4_3_u03_r2_network.node[30].content_store 	decision_ratio[30] 	0.0027707226968368
scalar tree_4_3_u03_r2_network.node[31].core_layer 	interests[31] 	12616
scalar tree_4_3_u03_r2_network.node[31].core_layer 	data[31] 	8936
scalar tree_4_3_u03_r2_network.node[31].content_store 	p_hit[31] 	0.29161382371592
scalar tree_4_3_u03_r2_network.node[31].content_store 	hits[31] 	3679
scalar tree_4_3_u03_r2_network.node[31].content_store 	misses[31] 	8937
scalar tree_4_3_u03_r2_network.node[31].content_store 	decision_yes[31] 	26
scalar tree_4_3_u03_r2_network.node[31].content_store 	decision_no[31] 	8910
scalar tree_4_3_u03_r2_network.node[31].content_store 	decision_ratio[31] 	0.0029095792300806
scalar tree_4_3_u03_r2_network.node[32].core_layer 	interests[32] 	12310
scalar tree_4_3_u03_r2_network.node[32].core_layer 	data[32] 	8568
scalar tree_4_3_u03_r2_network.node[32].content_store 	p_hit[32] 	0.30398050365556
scalar tree_4_3_u03_r2_network.node[32].content_store 	hits[32] 	3742
scalar tree_4_3_u03_r2_network.node[32].content_store 	misses[32] 	8568
scalar tree_4_3_u03_r2_network.node[32].content_store 	decision_yes[32] 	33
scalar tree_4_3_u03_r2_network.node[32].content_store 	decision_no[32] 	8535
scalar tree_4_3_u03_r2_network.node[32].content_store 	decision_ratio[32] 	0.0038515406162465
scalar tree_4_3_u03_r2_network.node[33].core_layer 	interests[33] 	12320
scalar tree_4_3_u03_r2_network.node[33].core_layer 	data[33] 	8685
scalar tree_4_3_u03_r2_network.node[33].content_store 	p_hit[33] 	0.2950487012987
scalar tree_4_3_u03_r2_network.node[33].content_store 	hits[33] 	3635
scalar tree_4_3_u03_r2_network.node[33].content_store 	misses[33] 	8685
scalar tree_4_3_u03_r2_network.node[33].content_store 	decision_yes[33] 	31
scalar tree_4_3_u03_r2_network.node[33].content_store 	decision_no[33] 	8654
scalar tree_4_3_u03_r2_network.node[33].content_store 	decision_ratio[33] 	0.0035693724812896
scalar tree_4_3_u03_r2_network.node[34].core_layer 	interests[34] 	12293
scalar tree_4_3_u03_r2_network.node[34].core_layer 	data[34] 	8674
scalar tree_4_3_u03_r2_network.node[34].content_store 	p_hit[34] 	0.2943951842512
scalar tree_4_3_u03_r2_network.node[34].content_store 	hits[34] 	3619
scalar tree_4_3_u03_r2_network.node[34].content_store 	misses[34] 	8674
scalar tree_4_3_u03_r2_network.node[34].content_store 	decision_yes[34] 	20
scalar tree_4_3_u03_r2_network.node[34].content_store 	decision_no[34] 	8654
scalar tree_4_3_u03_r2_network.node[34].content_store 	decision_ratio[34] 	0.0023057412958266
scalar tree_4_3_u03_r2_network.node[35].core_layer 	interests[35] 	12527
scalar tree_4_3_u03_r2_network.node[35].core_layer 	data[35] 	8713
scalar tree_4_3_u03_r2_network.node[35].content_store 	p_hit[35] 	0.30446236129959
scalar tree_4_3_u03_r2_network.node[35].content_store 	hits[35] 	3814
scalar tree_4_3_u03_r2_network.node[35].content_store 	misses[35] 	8713
scalar tree_4_3_u03_r2_network.node[35].content_store 	decision_yes[35] 	21
scalar tree_4_3_u03_r2_network.node[35].content_store 	decision_no[35] 	8692
scalar tree_4_3_u03_r2_network.node[35].content_store 	decision_ratio[35] 	0.0024101916676231
scalar tree_4_3_u03_r2_network.node[36].core_layer 	interests[36] 	12641
scalar tree_4_3_u03_r2_network.node[36].core_layer 	data[36] 	8781
scalar tree_4_3_u03_r2_network.node[36].content_store 	p_hit[36] 	0.3054346966221
scalar tree_4_3_u03_r2_network.node[36].content_store 	hits[36] 	3861
scalar tree_4_3_u03_r2_network.node[36].content_store 	misses[36] 	8780
scalar tree_4_3_u03_r2_network.node[36].content_store 	decision_yes[36] 	23
scalar tree_4_3_u03_r2_network.node[36].content_store 	decision_no[36] 	8758
scalar tree_4_3_u03_r2_network.node[36].content_store 	decision_ratio[36] 	0.0026192916524314
scalar tree_4_3_u03_r2_network.node[37].core_layer 	interests[37] 	12421
scalar tree_4_3_u03_r2_network.node[37].core_layer 	data[37] 	8763
scalar tree_4_3_u03_r2_network.node[37].content_store 	p_hit[37] 	0.29450124788664
scalar tree_4_3_u03_r2_network.node[37].content_store 	hits[37] 	3658
scalar tree_4_3_u03_r2_network.node[37].content_store 	misses[37] 	8763
scalar tree_4_3_u03_r2_network.node[37].content_store 	decision_yes[37] 	29
scalar tree_4_3_u03_r2_network.node[37].content_store 	decision_no[37] 	8734
scalar tree_4_3_u03_r2_network.node[37].content_store 	decision_ratio[37] 	0.0033093689375785
scalar tree_4_3_u03_r2_network.node[38].core_layer 	interests[38] 	11951
scalar tree_4_3_u03_r2_network.node[38].core_layer 	data[38] 	8487
scalar tree_4_3_u03_r2_network.node[38].content_store 	p_hit[38] 	0.28985022173877
scalar tree_4_3_u03_r2_network.node[38].content_store 	hits[38] 	3464
scalar tree_4_3_u03_r2_network.node[38].content_store 	misses[38] 	8487
scalar tree_4_3_u03_r2_network.node[38].content_store 	decision_yes[38] 	24
scalar tree_4_3_u03_r2_network.node[38].content_store 	decision_no[38] 	8463
scalar tree_4_3_u03_r2_network.node[38].content_store 	decision_ratio[38] 	0.0028278543655002
scalar tree_4_3_u03_r2_network.node[39].core_layer 	interests[39] 	12134
scalar tree_4_3_u03_r2_network.node[39].core_layer 	data[39] 	8535
scalar tree_4_3_u03_r2_network.node[39].content_store 	p_hit[39] 	0.29660458216582
scalar tree_4_3_u03_r2_network.node[39].content_store 	hits[39] 	3599
scalar tree_4_3_u03_r2_network.node[39].content_store 	misses[39] 	8535
scalar tree_4_3_u03_r2_network.node[39].content_store 	decision_yes[39] 	24
scalar tree_4_3_u03_r2_network.node[39].content_store 	decision_no[39] 	8511
scalar tree_4_3_u03_r2_network.node[39].content_store 	decision_ratio[39] 	0.0028119507908612
scalar tree_4_3_u03_r2_network.client[13] 	hdistance[13] 	2.6393088552916
scalar tree_4_3_u03_r2_network.client[13] 	downloads[13] 	12038
scalar tree_4_3_u03_r2_network.client[13] 	avg_time[13] 	0.004107822209
scalar tree_4_3_u03_r2_network.client[14] 	hdistance[14] 	2.6441804436321
scalar tree_4_3_u03_r2_network.client[14] 	downloads[14] 	12037
scalar tree_4_3_u03_r2_network.client[14] 	avg_time[14] 	0.004109937445
scalar tree_4_3_u03_r2_network.client[15] 	hdistance[15] 	2.6328891123963
scalar tree_4_3_u03_r2_network.client[15] 	downloads[15] 	11931
scalar tree_4_3_u03_r2_network.client[15] 	avg_time[15] 	0.004084266241
scalar tree_4_3_u03_r2_network.client[16] 	hdistance[16] 	2.5467745973462
scalar tree_4_3_u03_r2_network.client[16] 	downloads[16] 	11983
scalar tree_4_3_u03_r2_network.client[16] 	avg_time[16] 	0.003938257251
scalar tree_4_3_u03_r2_network.client[17] 	hdistance[17] 	2.655401478037
scalar tree_4_3_u03_r2_network.client[17] 	downloads[17] 	12043
scalar tree_4_3_u03_r2_network.client[17] 	avg_time[17] 	0.004124716772
scalar tree_4_3_u03_r2_network.client[18] 	hdistance[18] 	2.6598307291667
scalar tree_4_3_u03_r2_network.client[18] 	downloads[18] 	12288
scalar tree_4_3_u03_r2_network.client[18] 	avg_time[18] 	0.004131507302
scalar tree_4_3_u03_r2_network.client[19] 	hdistance[19] 	2.6310032894737
scalar tree_4_3_u03_r2_network.client[19] 	downloads[19] 	12160
scalar tree_4_3_u03_r2_network.client[19] 	avg_time[19] 	0.004072200894
scalar tree_4_3_u03_r2_network.client[20] 	hdistance[20] 	2.6386610878661
scalar tree_4_3_u03_r2_network.client[20] 	downloads[20] 	11950
scalar tree_4_3_u03_r2_network.client[20] 	avg_time[20] 	0.004079914157
scalar tree_4_3_u03_r2_network.client[21] 	hdistance[21] 	2.6730447860962
scalar tree_4_3_u03_r2_network.client[21] 	downloads[21] 	11968
scalar tree_4_3_u03_r2_network.client[21] 	avg_time[21] 	0.004164936854
scalar tree_4_3_u03_r2_network.client[22] 	hdistance[22] 	2.6124809998311
scalar tree_4_3_u03_r2_network.client[22] 	downloads[22] 	11842
scalar tree_4_3_u03_r2_network.client[22] 	avg_time[22] 	0.004083260013
scalar tree_4_3_u03_r2_network.client[23] 	hdistance[23] 	2.5672978505629
scalar tree_4_3_u03_r2_network.client[23] 	downloads[23] 	11724
scalar tree_4_3_u03_r2_network.client[23] 	avg_time[23] 	0.003977820344
scalar tree_4_3_u03_r2_network.client[24] 	hdistance[24] 	2.6322266270234
scalar tree_4_3_u03_r2_network.client[24] 	downloads[24] 	12108
scalar tree_4_3_u03_r2_network.client[24] 	avg_time[24] 	0.004113971209
scalar tree_4_3_u03_r2_network.client[25] 	hdistance[25] 	2.5746299857848
scalar tree_4_3_u03_r2_network.client[25] 	downloads[25] 	11959
scalar tree_4_3_u03_r2_network.client[25] 	avg_time[25] 	0.003998324617
scalar tree_4_3_u03_r2_network.client[26] 	hdistance[26] 	2.6364018142113
scalar tree_4_3_u03_r2_network.client[26] 	downloads[26] 	11906
scalar tree_4_3_u03_r2_network.client[26] 	avg_time[26] 	0.004116912851
scalar tree_4_3_u03_r2_network.client[27] 	hdistance[27] 	2.6408088844688
scalar tree_4_3_u03_r2_network.client[27] 	downloads[27] 	12066
scalar tree_4_3_u03_r2_network.client[27] 	avg_time[27] 	0.004121661144
scalar tree_4_3_u03_r2_network.client[28] 	hdistance[28] 	2.5861321776815
scalar tree_4_3_u03_r2_network.client[28] 	downloads[28] 	11999
scalar tree_4_3_u03_r2_network.client[28] 	avg_time[28] 	0.004044167354
scalar tree_4_3_u03_r2_network.client[29] 	hdistance[29] 	2.6281552594554
scalar tree_4_3_u03_r2_network.client[29] 	downloads[29] 	12083
scalar tree_4_3_u03_r2_network.client[29] 	avg_time[29] 	0.004133005218
scalar tree_4_3_u03_r2_network.client[30] 	hdistance[30] 	2.629213483146
scalar tree_4_3_u03_r2_network.client[30] 	downloads[30] 	11837
scalar tree_4_3_u03_r2_network.client[30] 	avg_time[30] 	0.004123845998
scalar tree_4_3_u03_r2_network.client[31] 	hdistance[31] 	2.6668036154478
scalar tree_4_3_u03_r2_network.client[31] 	downloads[31] 	12170
scalar tree_4_3_u03_r2_network.client[31] 	avg_time[31] 	0.004159733981
scalar tree_4_3_u03_r2_network.client[32] 	hdistance[32] 	2.6331395838598
scalar tree_4_3_u03_r2_network.client[32] 	downloads[32] 	11871
scalar tree_4_3_u03_r2_network.client[32] 	avg_time[32] 	0.004099904336
scalar tree_4_3_u03_r2_network.client[33] 	hdistance[33] 	2.6315526293858
scalar tree_4_3_u03_r2_network.client[33] 	downloads[33] 	11999
scalar tree_4_3_u03_r2_network.client[33] 	avg_time[33] 	0.004104839091
scalar tree_4_3_u03_r2_network.client[34] 	hdistance[34] 	2.6308474576271
scalar tree_4_3_u03_r2_network.client[34] 	downloads[34] 	11800
scalar tree_4_3_u03_r2_network.client[34] 	avg_time[34] 	0.004138810612
scalar tree_4_3_u03_r2_network.client[35] 	hdistance[35] 	2.6295614328758
scalar tree_4_3_u03_r2_network.client[35] 	downloads[35] 	11948
scalar tree_4_3_u03_r2_network.client[35] 	avg_time[35] 	0.004126880173
scalar tree_4_3_u03_r2_network.client[36] 	hdistance[36] 	2.6154163912756
scalar tree_4_3_u03_r2_network.client[36] 	downloads[36] 	12104
scalar tree_4_3_u03_r2_network.client[36] 	avg_time[36] 	0.00410062488
scalar tree_4_3_u03_r2_network.client[37] 	hdistance[37] 	2.6541403392085
scalar tree_4_3_u03_r2_network.client[37] 	downloads[37] 	12028
scalar tree_4_3_u03_r2_network.client[37] 	avg_time[37] 	0.004141500157
scalar tree_4_3_u03_r2_network.client[38] 	hdistance[38] 	2.6556968551297
scalar tree_4_3_u03_r2_network.client[38] 	downloads[38] 	11638
scalar tree_4_3_u03_r2_network.client[38] 	avg_time[38] 	0.004142289557
scalar tree_4_3_u03_r2_network.client[39] 	hdistance[39] 	2.6514710913445
scalar tree_4_3_u03_r2_network.client[39] 	downloads[39] 	11692
scalar tree_4_3_u03_r2_network.client[39] 	avg_time[39] 	0.004131494586
