version 2
run General-199-20160901-00:36:39-8710
attr a 0.9
attr cd ffc0.25
attr configname General
attr cr lru
attr datetime 20160901-00:36:39
attr experiment General
attr fsize 1
attr inifile hw5115/scenario_Y/omnetp.ini
attr iterationvars "$name=tree_4_3, $un=03, $rep=7, $cd=ffc0.25, $cr=lru, $fsize=1, $a=0.9, $sl=nrr, $ttl=1000, $variance=0.05"
attr iterationvars2 "$name=tree_4_3, $un=03, $rep=7, $cd=ffc0.25, $cr=lru, $fsize=1, $a=0.9, $sl=nrr, $ttl=1000, $variance=0.05, $repetition=0"
attr measurement "$name=tree_4_3, $un=03, $rep=7, $cd=ffc0.25, $cr=lru, $fsize=1, $a=0.9, $sl=nrr, $ttl=1000, $variance=0.05"
attr name tree_4_3
attr network networks.${name}_u${un}_r${rep}_network
attr processid 8710
attr rep 7
attr repetition 0
attr replication #0
attr resultdir results
attr runnumber 199
attr seedset 7
attr sl nrr
attr ttl 1000
attr un 03
attr variance 0.05

scalar . 	a 	0.9
scalar . 	fsize 	1
scalar . 	rep 	7
scalar . 	ttl 	1000
scalar . 	un 	03
scalar . 	variance 	0.05
scalar tree_4_3_u03_r7_network.content_distribution 	repo-0 	0
scalar tree_4_3_u03_r7_network.content_distribution 	client-0 	13
scalar tree_4_3_u03_r7_network.content_distribution 	client-1 	14
scalar tree_4_3_u03_r7_network.content_distribution 	client-2 	15
scalar tree_4_3_u03_r7_network.content_distribution 	client-3 	16
scalar tree_4_3_u03_r7_network.content_distribution 	client-4 	17
scalar tree_4_3_u03_r7_network.content_distribution 	client-5 	18
scalar tree_4_3_u03_r7_network.content_distribution 	client-6 	19
scalar tree_4_3_u03_r7_network.content_distribution 	client-7 	20
scalar tree_4_3_u03_r7_network.content_distribution 	client-8 	21
scalar tree_4_3_u03_r7_network.content_distribution 	client-9 	22
scalar tree_4_3_u03_r7_network.content_distribution 	client-10 	23
scalar tree_4_3_u03_r7_network.content_distribution 	client-11 	24
scalar tree_4_3_u03_r7_network.content_distribution 	client-12 	25
scalar tree_4_3_u03_r7_network.content_distribution 	client-13 	26
scalar tree_4_3_u03_r7_network.content_distribution 	client-14 	27
scalar tree_4_3_u03_r7_network.content_distribution 	client-15 	28
scalar tree_4_3_u03_r7_network.content_distribution 	client-16 	29
scalar tree_4_3_u03_r7_network.content_distribution 	client-17 	30
scalar tree_4_3_u03_r7_network.content_distribution 	client-18 	31
scalar tree_4_3_u03_r7_network.content_distribution 	client-19 	32
scalar tree_4_3_u03_r7_network.content_distribution 	client-20 	33
scalar tree_4_3_u03_r7_network.content_distribution 	client-21 	34
scalar tree_4_3_u03_r7_network.content_distribution 	client-22 	35
scalar tree_4_3_u03_r7_network.content_distribution 	client-23 	36
scalar tree_4_3_u03_r7_network.content_distribution 	client-24 	37
scalar tree_4_3_u03_r7_network.content_distribution 	client-25 	38
scalar tree_4_3_u03_r7_network.content_distribution 	client-26 	39
scalar tree_4_3_u03_r7_network.content_distribution 	repo-0_card 	100000
scalar tree_4_3_u03_r7_network.content_distribution 	repo-0_price 	0
scalar tree_4_3_u03_r7_network.statistics 	stabilization_time 	2374.6
scalar tree_4_3_u03_r7_network.statistics 	p_hit 	0.23037061209949
scalar tree_4_3_u03_r7_network.statistics 	interests 	24770.15
scalar tree_4_3_u03_r7_network.statistics 	data 	16646.75
scalar tree_4_3_u03_r7_network.statistics 	hdistance 	2.6218563744145
scalar tree_4_3_u03_r7_network.statistics 	avg_time 	0.004098645286
scalar tree_4_3_u03_r7_network.statistics 	downloads 	324930
scalar tree_4_3_u03_r7_network.statistics 	total_cost 	0
scalar tree_4_3_u03_r7_network.statistics 	total_replicas 	100000
scalar tree_4_3_u03_r7_network.statistics 	inner_hit 	0.4274920752162
scalar tree_4_3_u03_r7_network.node[0].core_layer 	interests[0] 	189631
scalar tree_4_3_u03_r7_network.node[0].core_layer 	repo_load[0] 	186025
scalar tree_4_3_u03_r7_network.node[0].core_layer 	data[0] 	0
scalar tree_4_3_u03_r7_network.node[0].core_layer 	repo_int[0] 	186025
scalar tree_4_3_u03_r7_network.node[0].content_store 	p_hit[0] 	0.019015878205568
scalar tree_4_3_u03_r7_network.node[0].content_store 	hits[0] 	3606
scalar tree_4_3_u03_r7_network.node[0].content_store 	misses[0] 	186025
scalar tree_4_3_u03_r7_network.node[0].content_store 	decision_yes[0] 	186
scalar tree_4_3_u03_r7_network.node[0].content_store 	decision_no[0] 	185839
scalar tree_4_3_u03_r7_network.node[0].content_store 	decision_ratio[0] 	0.00099986560946109
scalar tree_4_3_u03_r7_network.node[1].core_layer 	interests[1] 	68346
scalar tree_4_3_u03_r7_network.node[1].core_layer 	data[1] 	66242
scalar tree_4_3_u03_r7_network.node[1].content_store 	p_hit[1] 	0.030784537500366
scalar tree_4_3_u03_r7_network.node[1].content_store 	hits[1] 	2104
scalar tree_4_3_u03_r7_network.node[1].content_store 	misses[1] 	66242
scalar tree_4_3_u03_r7_network.node[1].content_store 	decision_yes[1] 	98
scalar tree_4_3_u03_r7_network.node[1].content_store 	decision_no[1] 	66144
scalar tree_4_3_u03_r7_network.node[1].content_store 	decision_ratio[1] 	0.0014794239304369
scalar tree_4_3_u03_r7_network.node[2].core_layer 	interests[2] 	99040
scalar tree_4_3_u03_r7_network.node[2].core_layer 	data[2] 	96176
scalar tree_4_3_u03_r7_network.node[2].content_store 	p_hit[2] 	0.028907512116317
scalar tree_4_3_u03_r7_network.node[2].content_store 	hits[2] 	2863
scalar tree_4_3_u03_r7_network.node[2].content_store 	misses[2] 	96177
scalar tree_4_3_u03_r7_network.node[2].content_store 	decision_yes[2] 	136
scalar tree_4_3_u03_r7_network.node[2].content_store 	decision_no[2] 	96040
scalar tree_4_3_u03_r7_network.node[2].content_store 	decision_ratio[2] 	0.0014140741973049
scalar tree_4_3_u03_r7_network.node[3].core_layer 	interests[3] 	43483
scalar tree_4_3_u03_r7_network.node[3].core_layer 	data[3] 	40232
scalar tree_4_3_u03_r7_network.node[3].content_store 	p_hit[3] 	0.074764850631281
scalar tree_4_3_u03_r7_network.node[3].content_store 	hits[3] 	3251
scalar tree_4_3_u03_r7_network.node[3].content_store 	misses[3] 	40232
scalar tree_4_3_u03_r7_network.node[3].content_store 	decision_yes[3] 	100
scalar tree_4_3_u03_r7_network.node[3].content_store 	decision_no[3] 	40132
scalar tree_4_3_u03_r7_network.node[3].content_store 	decision_ratio[3] 	0.0024855836150328
scalar tree_4_3_u03_r7_network.node[4].core_layer 	interests[4] 	34522
scalar tree_4_3_u03_r7_network.node[4].core_layer 	data[4] 	32200
scalar tree_4_3_u03_r7_network.node[4].content_store 	p_hit[4] 	0.067261456462546
scalar tree_4_3_u03_r7_network.node[4].content_store 	hits[4] 	2322
scalar tree_4_3_u03_r7_network.node[4].content_store 	misses[4] 	32200
scalar tree_4_3_u03_r7_network.node[4].content_store 	decision_yes[4] 	76
scalar tree_4_3_u03_r7_network.node[4].content_store 	decision_no[4] 	32124
scalar tree_4_3_u03_r7_network.node[4].content_store 	decision_ratio[4] 	0.002360248447205
scalar tree_4_3_u03_r7_network.node[5].core_layer 	interests[5] 	18525
scalar tree_4_3_u03_r7_network.node[5].core_layer 	data[5] 	16624
scalar tree_4_3_u03_r7_network.node[5].content_store 	p_hit[5] 	0.10261808367072
scalar tree_4_3_u03_r7_network.node[5].content_store 	hits[5] 	1901
scalar tree_4_3_u03_r7_network.node[5].content_store 	misses[5] 	16624
scalar tree_4_3_u03_r7_network.node[5].content_store 	decision_yes[5] 	45
scalar tree_4_3_u03_r7_network.node[5].content_store 	decision_no[5] 	16579
scalar tree_4_3_u03_r7_network.node[5].content_store 	decision_ratio[5] 	0.0027069297401347
scalar tree_4_3_u03_r7_network.node[6].core_layer 	interests[6] 	29946
scalar tree_4_3_u03_r7_network.node[6].core_layer 	data[6] 	26699
scalar tree_4_3_u03_r7_network.node[6].content_store 	p_hit[6] 	0.10842850464169
scalar tree_4_3_u03_r7_network.node[6].content_store 	hits[6] 	3247
scalar tree_4_3_u03_r7_network.node[6].content_store 	misses[6] 	26699
scalar tree_4_3_u03_r7_network.node[6].content_store 	decision_yes[6] 	96
scalar tree_4_3_u03_r7_network.node[6].content_store 	decision_no[6] 	26603
scalar tree_4_3_u03_r7_network.node[6].content_store 	decision_ratio[6] 	0.003595640286153
scalar tree_4_3_u03_r7_network.node[7].core_layer 	interests[7] 	26936
scalar tree_4_3_u03_r7_network.node[7].core_layer 	data[7] 	24764
scalar tree_4_3_u03_r7_network.node[7].content_store 	p_hit[7] 	0.080635580635581
scalar tree_4_3_u03_r7_network.node[7].content_store 	hits[7] 	2172
scalar tree_4_3_u03_r7_network.node[7].content_store 	misses[7] 	24764
scalar tree_4_3_u03_r7_network.node[7].content_store 	decision_yes[7] 	58
scalar tree_4_3_u03_r7_network.node[7].content_store 	decision_no[7] 	24706
scalar tree_4_3_u03_r7_network.node[7].content_store 	decision_ratio[7] 	0.0023421095138104
scalar tree_4_3_u03_r7_network.node[8].core_layer 	interests[8] 	27740
scalar tree_4_3_u03_r7_network.node[8].core_layer 	data[8] 	24881
scalar tree_4_3_u03_r7_network.node[8].content_store 	p_hit[8] 	0.10306416726748
scalar tree_4_3_u03_r7_network.node[8].content_store 	hits[8] 	2859
scalar tree_4_3_u03_r7_network.node[8].content_store 	misses[8] 	24881
scalar tree_4_3_u03_r7_network.node[8].content_store 	decision_yes[8] 	62
scalar tree_4_3_u03_r7_network.node[8].content_store 	decision_no[8] 	24819
scalar tree_4_3_u03_r7_network.node[8].content_store 	decision_ratio[8] 	0.0024918612595957
scalar tree_4_3_u03_r7_network.node[9].core_layer 	interests[9] 	28221
scalar tree_4_3_u03_r7_network.node[9].core_layer 	data[9] 	25375
scalar tree_4_3_u03_r7_network.node[9].content_store 	p_hit[9] 	0.10081145246448
scalar tree_4_3_u03_r7_network.node[9].content_store 	hits[9] 	2845
scalar tree_4_3_u03_r7_network.node[9].content_store 	misses[9] 	25376
scalar tree_4_3_u03_r7_network.node[9].content_store 	decision_yes[9] 	64
scalar tree_4_3_u03_r7_network.node[9].content_store 	decision_no[9] 	25311
scalar tree_4_3_u03_r7_network.node[9].content_store 	decision_ratio[9] 	0.0025221674876847
scalar tree_4_3_u03_r7_network.node[10].core_layer 	interests[10] 	27134
scalar tree_4_3_u03_r7_network.node[10].core_layer 	data[10] 	25080
scalar tree_4_3_u03_r7_network.node[10].content_store 	p_hit[10] 	0.075698385789047
scalar tree_4_3_u03_r7_network.node[10].content_store 	hits[10] 	2054
scalar tree_4_3_u03_r7_network.node[10].content_store 	misses[10] 	25080
scalar tree_4_3_u03_r7_network.node[10].content_store 	decision_yes[10] 	72
scalar tree_4_3_u03_r7_network.node[10].content_store 	decision_no[10] 	25008
scalar tree_4_3_u03_r7_network.node[10].content_store 	decision_ratio[10] 	0.0028708133971292
scalar tree_4_3_u03_r7_network.node[11].core_layer 	interests[11] 	37341
scalar tree_4_3_u03_r7_network.node[11].core_layer 	data[11] 	33512
scalar tree_4_3_u03_r7_network.node[11].content_store 	p_hit[11] 	0.10254144238237
scalar tree_4_3_u03_r7_network.node[11].content_store 	hits[11] 	3829
scalar tree_4_3_u03_r7_network.node[11].content_store 	misses[11] 	33512
scalar tree_4_3_u03_r7_network.node[11].content_store 	decision_yes[11] 	104
scalar tree_4_3_u03_r7_network.node[11].content_store 	decision_no[11] 	33408
scalar tree_4_3_u03_r7_network.node[11].content_store 	decision_ratio[11] 	0.0031033659584626
scalar tree_4_3_u03_r7_network.node[12].core_layer 	interests[12] 	19667
scalar tree_4_3_u03_r7_network.node[12].core_layer 	data[12] 	17074
scalar tree_4_3_u03_r7_network.node[12].content_store 	p_hit[12] 	0.1317943763665
scalar tree_4_3_u03_r7_network.node[12].content_store 	hits[12] 	2592
scalar tree_4_3_u03_r7_network.node[12].content_store 	misses[12] 	17075
scalar tree_4_3_u03_r7_network.node[12].content_store 	decision_yes[12] 	55
scalar tree_4_3_u03_r7_network.node[12].content_store 	decision_no[12] 	17019
scalar tree_4_3_u03_r7_network.node[12].content_store 	decision_ratio[12] 	0.0032212721096404
scalar tree_4_3_u03_r7_network.node[13].core_layer 	interests[13] 	12416
scalar tree_4_3_u03_r7_network.node[13].core_layer 	data[13] 	8774
scalar tree_4_3_u03_r7_network.node[13].content_store 	p_hit[13] 	0.29333118556701
scalar tree_4_3_u03_r7_network.node[13].content_store 	hits[13] 	3642
scalar tree_4_3_u03_r7_network.node[13].content_store 	misses[13] 	8774
scalar tree_4_3_u03_r7_network.node[13].content_store 	decision_yes[13] 	21
scalar tree_4_3_u03_r7_network.node[13].content_store 	decision_no[13] 	8753
scalar tree_4_3_u03_r7_network.node[13].content_store 	decision_ratio[13] 	0.0023934351493048
scalar tree_4_3_u03_r7_network.node[14].core_layer 	interests[14] 	12490
scalar tree_4_3_u03_r7_network.node[14].core_layer 	data[14] 	8777
scalar tree_4_3_u03_r7_network.node[14].content_store 	p_hit[14] 	0.29727782225781
scalar tree_4_3_u03_r7_network.node[14].content_store 	hits[14] 	3713
scalar tree_4_3_u03_r7_network.node[14].content_store 	misses[14] 	8777
scalar tree_4_3_u03_r7_network.node[14].content_store 	decision_yes[14] 	17
scalar tree_4_3_u03_r7_network.node[14].content_store 	decision_no[14] 	8760
scalar tree_4_3_u03_r7_network.node[14].content_store 	decision_ratio[14] 	0.0019368804830808
scalar tree_4_3_u03_r7_network.node[15].core_layer 	interests[15] 	13034
scalar tree_4_3_u03_r7_network.node[15].core_layer 	data[15] 	8831
scalar tree_4_3_u03_r7_network.node[15].content_store 	p_hit[15] 	0.32246432407549
scalar tree_4_3_u03_r7_network.node[15].content_store 	hits[15] 	4203
scalar tree_4_3_u03_r7_network.node[15].content_store 	misses[15] 	8831
scalar tree_4_3_u03_r7_network.node[15].content_store 	decision_yes[15] 	22
scalar tree_4_3_u03_r7_network.node[15].content_store 	decision_no[15] 	8809
scalar tree_4_3_u03_r7_network.node[15].content_store 	decision_ratio[15] 	0.0024912240969313
scalar tree_4_3_u03_r7_network.node[16].core_layer 	interests[16] 	12911
scalar tree_4_3_u03_r7_network.node[16].core_layer 	data[16] 	8887
scalar tree_4_3_u03_r7_network.node[16].content_store 	p_hit[16] 	0.31167221748896
scalar tree_4_3_u03_r7_network.node[16].content_store 	hits[16] 	4024
scalar tree_4_3_u03_r7_network.node[16].content_store 	misses[16] 	8887
scalar tree_4_3_u03_r7_network.node[16].content_store 	decision_yes[16] 	24
scalar tree_4_3_u03_r7_network.node[16].content_store 	decision_no[16] 	8863
scalar tree_4_3_u03_r7_network.node[16].content_store 	decision_ratio[16] 	0.0027005738719478
scalar tree_4_3_u03_r7_network.node[17].core_layer 	interests[17] 	12395
scalar tree_4_3_u03_r7_network.node[17].core_layer 	data[17] 	8738
scalar tree_4_3_u03_r7_network.node[17].content_store 	p_hit[17] 	0.29503832190399
scalar tree_4_3_u03_r7_network.node[17].content_store 	hits[17] 	3657
scalar tree_4_3_u03_r7_network.node[17].content_store 	misses[17] 	8738
scalar tree_4_3_u03_r7_network.node[17].content_store 	decision_yes[17] 	22
scalar tree_4_3_u03_r7_network.node[17].content_store 	decision_no[17] 	8716
scalar tree_4_3_u03_r7_network.node[17].content_store 	decision_ratio[17] 	0.0025177386129549
scalar tree_4_3_u03_r7_network.node[18].core_layer 	interests[18] 	12137
scalar tree_4_3_u03_r7_network.node[18].core_layer 	data[18] 	8507
scalar tree_4_3_u03_r7_network.node[18].content_store 	p_hit[18] 	0.29908544121282
scalar tree_4_3_u03_r7_network.node[18].content_store 	hits[18] 	3630
scalar tree_4_3_u03_r7_network.node[18].content_store 	misses[18] 	8507
scalar tree_4_3_u03_r7_network.node[18].content_store 	decision_yes[18] 	32
scalar tree_4_3_u03_r7_network.node[18].content_store 	decision_no[18] 	8475
scalar tree_4_3_u03_r7_network.node[18].content_store 	decision_ratio[18] 	0.0037616080874574
scalar tree_4_3_u03_r7_network.node[19].core_layer 	interests[19] 	12887
scalar tree_4_3_u03_r7_network.node[19].core_layer 	data[19] 	8949
scalar tree_4_3_u03_r7_network.node[19].content_store 	p_hit[19] 	0.3055792659269
scalar tree_4_3_u03_r7_network.node[19].content_store 	hits[19] 	3938
scalar tree_4_3_u03_r7_network.node[19].content_store 	misses[19] 	8949
scalar tree_4_3_u03_r7_network.node[19].content_store 	decision_yes[19] 	24
scalar tree_4_3_u03_r7_network.node[19].content_store 	decision_no[19] 	8925
scalar tree_4_3_u03_r7_network.node[19].content_store 	decision_ratio[19] 	0.0026818638954073
scalar tree_4_3_u03_r7_network.node[20].core_layer 	interests[20] 	12593
scalar tree_4_3_u03_r7_network.node[20].core_layer 	data[20] 	8789
scalar tree_4_3_u03_r7_network.node[20].content_store 	p_hit[20] 	0.30199317080918
scalar tree_4_3_u03_r7_network.node[20].content_store 	hits[20] 	3803
scalar tree_4_3_u03_r7_network.node[20].content_store 	misses[20] 	8790
scalar tree_4_3_u03_r7_network.node[20].content_store 	decision_yes[20] 	34
scalar tree_4_3_u03_r7_network.node[20].content_store 	decision_no[20] 	8755
scalar tree_4_3_u03_r7_network.node[20].content_store 	decision_ratio[20] 	0.0038684719535783
scalar tree_4_3_u03_r7_network.node[21].core_layer 	interests[21] 	12666
scalar tree_4_3_u03_r7_network.node[21].core_layer 	data[21] 	8761
scalar tree_4_3_u03_r7_network.node[21].content_store 	p_hit[21] 	0.30830570030002
scalar tree_4_3_u03_r7_network.node[21].content_store 	hits[21] 	3905
scalar tree_4_3_u03_r7_network.node[21].content_store 	misses[21] 	8761
scalar tree_4_3_u03_r7_network.node[21].content_store 	decision_yes[21] 	27
scalar tree_4_3_u03_r7_network.node[21].content_store 	decision_no[21] 	8734
scalar tree_4_3_u03_r7_network.node[21].content_store 	decision_ratio[21] 	0.0030818399726059
scalar tree_4_3_u03_r7_network.node[22].core_layer 	interests[22] 	12437
scalar tree_4_3_u03_r7_network.node[22].core_layer 	data[22] 	8760
scalar tree_4_3_u03_r7_network.node[22].content_store 	p_hit[22] 	0.29565007638498
scalar tree_4_3_u03_r7_network.node[22].content_store 	hits[22] 	3677
scalar tree_4_3_u03_r7_network.node[22].content_store 	misses[22] 	8760
scalar tree_4_3_u03_r7_network.node[22].content_store 	decision_yes[22] 	30
scalar tree_4_3_u03_r7_network.node[22].content_store 	decision_no[22] 	8730
scalar tree_4_3_u03_r7_network.node[22].content_store 	decision_ratio[22] 	0.0034246575342466
scalar tree_4_3_u03_r7_network.node[23].core_layer 	interests[23] 	13031
scalar tree_4_3_u03_r7_network.node[23].core_layer 	data[23] 	8916
scalar tree_4_3_u03_r7_network.node[23].content_store 	p_hit[23] 	0.31578543473256
scalar tree_4_3_u03_r7_network.node[23].content_store 	hits[23] 	4115
scalar tree_4_3_u03_r7_network.node[23].content_store 	misses[23] 	8916
scalar tree_4_3_u03_r7_network.node[23].content_store 	decision_yes[23] 	31
scalar tree_4_3_u03_r7_network.node[23].content_store 	decision_no[23] 	8885
scalar tree_4_3_u03_r7_network.node[23].content_store 	decision_ratio[23] 	0.0034768954688201
scalar tree_4_3_u03_r7_network.node[24].core_layer 	interests[24] 	12556
scalar tree_4_3_u03_r7_network.node[24].core_layer 	data[24] 	8849
scalar tree_4_3_u03_r7_network.node[24].content_store 	p_hit[24] 	0.29515769353297
scalar tree_4_3_u03_r7_network.node[24].content_store 	hits[24] 	3706
scalar tree_4_3_u03_r7_network.node[24].content_store 	misses[24] 	8850
scalar tree_4_3_u03_r7_network.node[24].content_store 	decision_yes[24] 	37
scalar tree_4_3_u03_r7_network.node[24].content_store 	decision_no[24] 	8812
scalar tree_4_3_u03_r7_network.node[24].content_store 	decision_ratio[24] 	0.0041812634195954
scalar tree_4_3_u03_r7_network.node[25].core_layer 	interests[25] 	12460
scalar tree_4_3_u03_r7_network.node[25].core_layer 	data[25] 	8748
scalar tree_4_3_u03_r7_network.node[25].content_store 	p_hit[25] 	0.29791332263242
scalar tree_4_3_u03_r7_network.node[25].content_store 	hits[25] 	3712
scalar tree_4_3_u03_r7_network.node[25].content_store 	misses[25] 	8748
scalar tree_4_3_u03_r7_network.node[25].content_store 	decision_yes[25] 	24
scalar tree_4_3_u03_r7_network.node[25].content_store 	decision_no[25] 	8724
scalar tree_4_3_u03_r7_network.node[25].content_store 	decision_ratio[25] 	0.0027434842249657
scalar tree_4_3_u03_r7_network.node[26].core_layer 	interests[26] 	12410
scalar tree_4_3_u03_r7_network.node[26].core_layer 	data[26] 	8743
scalar tree_4_3_u03_r7_network.node[26].content_store 	p_hit[26] 	0.29548751007252
scalar tree_4_3_u03_r7_network.node[26].content_store 	hits[26] 	3667
scalar tree_4_3_u03_r7_network.node[26].content_store 	misses[26] 	8743
scalar tree_4_3_u03_r7_network.node[26].content_store 	decision_yes[26] 	33
scalar tree_4_3_u03_r7_network.node[26].content_store 	decision_no[26] 	8710
scalar tree_4_3_u03_r7_network.node[26].content_store 	decision_ratio[26] 	0.0037744481299325
scalar tree_4_3_u03_r7_network.node[27].core_layer 	interests[27] 	12972
scalar tree_4_3_u03_r7_network.node[27].core_layer 	data[27] 	8784
scalar tree_4_3_u03_r7_network.node[27].content_store 	p_hit[27] 	0.32284921369103
scalar tree_4_3_u03_r7_network.node[27].content_store 	hits[27] 	4188
scalar tree_4_3_u03_r7_network.node[27].content_store 	misses[27] 	8784
scalar tree_4_3_u03_r7_network.node[27].content_store 	decision_yes[27] 	16
scalar tree_4_3_u03_r7_network.node[27].content_store 	decision_no[27] 	8768
scalar tree_4_3_u03_r7_network.node[27].content_store 	decision_ratio[27] 	0.0018214936247723
scalar tree_4_3_u03_r7_network.node[28].core_layer 	interests[28] 	12435
scalar tree_4_3_u03_r7_network.node[28].core_layer 	data[28] 	8705
scalar tree_4_3_u03_r7_network.node[28].content_store 	p_hit[28] 	0.29987937273824
scalar tree_4_3_u03_r7_network.node[28].content_store 	hits[28] 	3729
scalar tree_4_3_u03_r7_network.node[28].content_store 	misses[28] 	8706
scalar tree_4_3_u03_r7_network.node[28].content_store 	decision_yes[28] 	32
scalar tree_4_3_u03_r7_network.node[28].content_store 	decision_no[28] 	8673
scalar tree_4_3_u03_r7_network.node[28].content_store 	decision_ratio[28] 	0.0036760482481333
scalar tree_4_3_u03_r7_network.node[29].core_layer 	interests[29] 	12489
scalar tree_4_3_u03_r7_network.node[29].core_layer 	data[29] 	8780
scalar tree_4_3_u03_r7_network.node[29].content_store 	p_hit[29] 	0.29698134358235
scalar tree_4_3_u03_r7_network.node[29].content_store 	hits[29] 	3709
scalar tree_4_3_u03_r7_network.node[29].content_store 	misses[29] 	8780
scalar tree_4_3_u03_r7_network.node[29].content_store 	decision_yes[29] 	36
scalar tree_4_3_u03_r7_network.node[29].content_store 	decision_no[29] 	8744
scalar tree_4_3_u03_r7_network.node[29].content_store 	decision_ratio[29] 	0.0041002277904328
scalar tree_4_3_u03_r7_network.node[30].core_layer 	interests[30] 	12622
scalar tree_4_3_u03_r7_network.node[30].core_layer 	data[30] 	8848
scalar tree_4_3_u03_r7_network.node[30].content_store 	p_hit[30] 	0.29900174298843
scalar tree_4_3_u03_r7_network.node[30].content_store 	hits[30] 	3774
scalar tree_4_3_u03_r7_network.node[30].content_store 	misses[30] 	8848
scalar tree_4_3_u03_r7_network.node[30].content_store 	decision_yes[30] 	24
scalar tree_4_3_u03_r7_network.node[30].content_store 	decision_no[30] 	8824
scalar tree_4_3_u03_r7_network.node[30].content_store 	decision_ratio[30] 	0.0027124773960217
scalar tree_4_3_u03_r7_network.node[31].core_layer 	interests[31] 	12249
scalar tree_4_3_u03_r7_network.node[31].core_layer 	data[31] 	8682
scalar tree_4_3_u03_r7_network.node[31].content_store 	p_hit[31] 	0.29120744550576
scalar tree_4_3_u03_r7_network.node[31].content_store 	hits[31] 	3567
scalar tree_4_3_u03_r7_network.node[31].content_store 	misses[31] 	8682
scalar tree_4_3_u03_r7_network.node[31].content_store 	decision_yes[31] 	30
scalar tree_4_3_u03_r7_network.node[31].content_store 	decision_no[31] 	8652
scalar tree_4_3_u03_r7_network.node[31].content_store 	decision_ratio[31] 	0.0034554250172771
scalar tree_4_3_u03_r7_network.node[32].core_layer 	interests[32] 	12495
scalar tree_4_3_u03_r7_network.node[32].core_layer 	data[32] 	8722
scalar tree_4_3_u03_r7_network.node[32].content_store 	p_hit[32] 	0.30196078431373
scalar tree_4_3_u03_r7_network.node[32].content_store 	hits[32] 	3773
scalar tree_4_3_u03_r7_network.node[32].content_store 	misses[32] 	8722
scalar tree_4_3_u03_r7_network.node[32].content_store 	decision_yes[32] 	27
scalar tree_4_3_u03_r7_network.node[32].content_store 	decision_no[32] 	8695
scalar tree_4_3_u03_r7_network.node[32].content_store 	decision_ratio[32] 	0.0030956202705801
scalar tree_4_3_u03_r7_network.node[33].core_layer 	interests[33] 	12477
scalar tree_4_3_u03_r7_network.node[33].core_layer 	data[33] 	8781
scalar tree_4_3_u03_r7_network.node[33].content_store 	p_hit[33] 	0.29622505409954
scalar tree_4_3_u03_r7_network.node[33].content_store 	hits[33] 	3696
scalar tree_4_3_u03_r7_network.node[33].content_store 	misses[33] 	8781
scalar tree_4_3_u03_r7_network.node[33].content_store 	decision_yes[33] 	22
scalar tree_4_3_u03_r7_network.node[33].content_store 	decision_no[33] 	8759
scalar tree_4_3_u03_r7_network.node[33].content_store 	decision_ratio[33] 	0.0025054094066735
scalar tree_4_3_u03_r7_network.node[34].core_layer 	interests[34] 	12725
scalar tree_4_3_u03_r7_network.node[34].core_layer 	data[34] 	8879
scalar tree_4_3_u03_r7_network.node[34].content_store 	p_hit[34] 	0.30223968565815
scalar tree_4_3_u03_r7_network.node[34].content_store 	hits[34] 	3846
scalar tree_4_3_u03_r7_network.node[34].content_store 	misses[34] 	8879
scalar tree_4_3_u03_r7_network.node[34].content_store 	decision_yes[34] 	30
scalar tree_4_3_u03_r7_network.node[34].content_store 	decision_no[34] 	8849
scalar tree_4_3_u03_r7_network.node[34].content_store 	decision_ratio[34] 	0.003378758869242
scalar tree_4_3_u03_r7_network.node[35].core_layer 	interests[35] 	12474
scalar tree_4_3_u03_r7_network.node[35].core_layer 	data[35] 	8679
scalar tree_4_3_u03_r7_network.node[35].content_store 	p_hit[35] 	0.3042328042328
scalar tree_4_3_u03_r7_network.node[35].content_store 	hits[35] 	3795
scalar tree_4_3_u03_r7_network.node[35].content_store 	misses[35] 	8679
scalar tree_4_3_u03_r7_network.node[35].content_store 	decision_yes[35] 	33
scalar tree_4_3_u03_r7_network.node[35].content_store 	decision_no[35] 	8646
scalar tree_4_3_u03_r7_network.node[35].content_store 	decision_ratio[35] 	0.0038022813688213
scalar tree_4_3_u03_r7_network.node[36].core_layer 	interests[36] 	12966
scalar tree_4_3_u03_r7_network.node[36].core_layer 	data[36] 	8812
scalar tree_4_3_u03_r7_network.node[36].content_store 	p_hit[36] 	0.32037636896499
scalar tree_4_3_u03_r7_network.node[36].content_store 	hits[36] 	4154
scalar tree_4_3_u03_r7_network.node[36].content_store 	misses[36] 	8812
scalar tree_4_3_u03_r7_network.node[36].content_store 	decision_yes[36] 	31
scalar tree_4_3_u03_r7_network.node[36].content_store 	decision_no[36] 	8781
scalar tree_4_3_u03_r7_network.node[36].content_store 	decision_ratio[36] 	0.0035179300953246
scalar tree_4_3_u03_r7_network.node[37].core_layer 	interests[37] 	12461
scalar tree_4_3_u03_r7_network.node[37].core_layer 	data[37] 	8779
scalar tree_4_3_u03_r7_network.node[37].content_store 	p_hit[37] 	0.29548190353904
scalar tree_4_3_u03_r7_network.node[37].content_store 	hits[37] 	3682
scalar tree_4_3_u03_r7_network.node[37].content_store 	misses[37] 	8779
scalar tree_4_3_u03_r7_network.node[37].content_store 	decision_yes[37] 	19
scalar tree_4_3_u03_r7_network.node[37].content_store 	decision_no[37] 	8760
scalar tree_4_3_u03_r7_network.node[37].content_store 	decision_ratio[37] 	0.0021642556099784
scalar tree_4_3_u03_r7_network.node[38].core_layer 	interests[38] 	13137
scalar tree_4_3_u03_r7_network.node[38].core_layer 	data[38] 	8859
scalar tree_4_3_u03_r7_network.node[38].content_store 	p_hit[38] 	0.32564512445764
scalar tree_4_3_u03_r7_network.node[38].content_store 	hits[38] 	4278
scalar tree_4_3_u03_r7_network.node[38].content_store 	misses[38] 	8859
scalar tree_4_3_u03_r7_network.node[38].content_store 	decision_yes[38] 	26
scalar tree_4_3_u03_r7_network.node[38].content_store 	decision_no[38] 	8833
scalar tree_4_3_u03_r7_network.node[38].content_store 	decision_ratio[38] 	0.0029348684953155
scalar tree_4_3_u03_r7_network.node[39].core_layer 	interests[39] 	12349
scalar tree_4_3_u03_r7_network.node[39].core_layer 	data[39] 	8672
scalar tree_4_3_u03_r7_network.node[39].content_store 	p_hit[39] 	0.29767592517613
scalar tree_4_3_u03_r7_network.node[39].content_store 	hits[39] 	3676
scalar tree_4_3_u03_r7_network.node[39].content_store 	misses[39] 	8673
scalar tree_4_3_u03_r7_network.node[39].content_store 	decision_yes[39] 	26
scalar tree_4_3_u03_r7_network.node[39].content_store 	decision_no[39] 	8646
scalar tree_4_3_u03_r7_network.node[39].content_store 	decision_ratio[39] 	0.0029981549815498
scalar tree_4_3_u03_r7_network.client[13] 	hdistance[13] 	2.6535779511871
scalar tree_4_3_u03_r7_network.client[13] 	downloads[13] 	12046
scalar tree_4_3_u03_r7_network.client[13] 	avg_time[13] 	0.004121199041
scalar tree_4_3_u03_r7_network.client[14] 	hdistance[14] 	2.6467958271237
scalar tree_4_3_u03_r7_network.client[14] 	downloads[14] 	12078
scalar tree_4_3_u03_r7_network.client[14] 	avg_time[14] 	0.004117400503
scalar tree_4_3_u03_r7_network.client[15] 	hdistance[15] 	2.55694948828
scalar tree_4_3_u03_r7_network.client[15] 	downloads[15] 	12116
scalar tree_4_3_u03_r7_network.client[15] 	avg_time[15] 	0.003992403704
scalar tree_4_3_u03_r7_network.client[16] 	hdistance[16] 	2.599289021164
scalar tree_4_3_u03_r7_network.client[16] 	downloads[16] 	12096
scalar tree_4_3_u03_r7_network.client[16] 	avg_time[16] 	0.004028932179
scalar tree_4_3_u03_r7_network.client[17] 	hdistance[17] 	2.6380495074096
scalar tree_4_3_u03_r7_network.client[17] 	downloads[17] 	12079
scalar tree_4_3_u03_r7_network.client[17] 	avg_time[17] 	0.004109277552
scalar tree_4_3_u03_r7_network.client[18] 	hdistance[18] 	2.6205417227456
scalar tree_4_3_u03_r7_network.client[18] 	downloads[18] 	11888
scalar tree_4_3_u03_r7_network.client[18] 	avg_time[18] 	0.004076544831
scalar tree_4_3_u03_r7_network.client[19] 	hdistance[19] 	2.639554087531
scalar tree_4_3_u03_r7_network.client[19] 	downloads[19] 	12110
scalar tree_4_3_u03_r7_network.client[19] 	avg_time[19] 	0.004147808715
scalar tree_4_3_u03_r7_network.client[20] 	hdistance[20] 	2.6305988928032
scalar tree_4_3_u03_r7_network.client[20] 	downloads[20] 	11922
scalar tree_4_3_u03_r7_network.client[20] 	avg_time[20] 	0.004131518573
scalar tree_4_3_u03_r7_network.client[21] 	hdistance[21] 	2.6103528628495
scalar tree_4_3_u03_r7_network.client[21] 	downloads[21] 	12016
scalar tree_4_3_u03_r7_network.client[21] 	avg_time[21] 	0.004097866515
scalar tree_4_3_u03_r7_network.client[22] 	hdistance[22] 	2.6559594953519
scalar tree_4_3_u03_r7_network.client[22] 	downloads[22] 	12048
scalar tree_4_3_u03_r7_network.client[22] 	avg_time[22] 	0.004150893401
scalar tree_4_3_u03_r7_network.client[23] 	hdistance[23] 	2.5720631786772
scalar tree_4_3_u03_r7_network.client[23] 	downloads[23] 	12156
scalar tree_4_3_u03_r7_network.client[23] 	avg_time[23] 	0.004012171996
scalar tree_4_3_u03_r7_network.client[24] 	hdistance[24] 	2.652965788826
scalar tree_4_3_u03_r7_network.client[24] 	downloads[24] 	12189
scalar tree_4_3_u03_r7_network.client[24] 	avg_time[24] 	0.004153605786
scalar tree_4_3_u03_r7_network.client[25] 	hdistance[25] 	2.6323346335796
scalar tree_4_3_u03_r7_network.client[25] 	downloads[25] 	12049
scalar tree_4_3_u03_r7_network.client[25] 	avg_time[25] 	0.004115193243
scalar tree_4_3_u03_r7_network.client[26] 	hdistance[26] 	2.6351565762004
scalar tree_4_3_u03_r7_network.client[26] 	downloads[26] 	11975
scalar tree_4_3_u03_r7_network.client[26] 	avg_time[26] 	0.004122543783
scalar tree_4_3_u03_r7_network.client[27] 	hdistance[27] 	2.5810550957278
scalar tree_4_3_u03_r7_network.client[27] 	downloads[27] 	11961
scalar tree_4_3_u03_r7_network.client[27] 	avg_time[27] 	0.004014878707
scalar tree_4_3_u03_r7_network.client[28] 	hdistance[28] 	2.6374822131079
scalar tree_4_3_u03_r7_network.client[28] 	downloads[28] 	11947
scalar tree_4_3_u03_r7_network.client[28] 	avg_time[28] 	0.004118161152
scalar tree_4_3_u03_r7_network.client[29] 	hdistance[29] 	2.6309434590724
scalar tree_4_3_u03_r7_network.client[29] 	downloads[29] 	12009
scalar tree_4_3_u03_r7_network.client[29] 	avg_time[29] 	0.004114577697
scalar tree_4_3_u03_r7_network.client[30] 	hdistance[30] 	2.6360397680199
scalar tree_4_3_u03_r7_network.client[30] 	downloads[30] 	12070
scalar tree_4_3_u03_r7_network.client[30] 	avg_time[30] 	0.004126094769
scalar tree_4_3_u03_r7_network.client[31] 	hdistance[31] 	2.6593211752786
scalar tree_4_3_u03_r7_network.client[31] 	downloads[31] 	11844
scalar tree_4_3_u03_r7_network.client[31] 	avg_time[31] 	0.004161260159
scalar tree_4_3_u03_r7_network.client[32] 	hdistance[32] 	2.6327426300099
scalar tree_4_3_u03_r7_network.client[32] 	downloads[32] 	12076
scalar tree_4_3_u03_r7_network.client[32] 	avg_time[32] 	0.004119241757
scalar tree_4_3_u03_r7_network.client[33] 	hdistance[33] 	2.6675279213202
scalar tree_4_3_u03_r7_network.client[33] 	downloads[33] 	11998
scalar tree_4_3_u03_r7_network.client[33] 	avg_time[33] 	0.004163524277
scalar tree_4_3_u03_r7_network.client[34] 	hdistance[34] 	2.6106655642828
scalar tree_4_3_u03_r7_network.client[34] 	downloads[34] 	12095
scalar tree_4_3_u03_r7_network.client[34] 	avg_time[34] 	0.004119550517
scalar tree_4_3_u03_r7_network.client[35] 	hdistance[35] 	2.6260107816712
scalar tree_4_3_u03_r7_network.client[35] 	downloads[35] 	11872
scalar tree_4_3_u03_r7_network.client[35] 	avg_time[35] 	0.004137393813
scalar tree_4_3_u03_r7_network.client[36] 	hdistance[36] 	2.5630552096306
scalar tree_4_3_u03_r7_network.client[36] 	downloads[36] 	12045
scalar tree_4_3_u03_r7_network.client[36] 	avg_time[36] 	0.004014442801
scalar tree_4_3_u03_r7_network.client[37] 	hdistance[37] 	2.6443763965902
scalar tree_4_3_u03_r7_network.client[37] 	downloads[37] 	12083
scalar tree_4_3_u03_r7_network.client[37] 	avg_time[37] 	0.004126786674
scalar tree_4_3_u03_r7_network.client[38] 	hdistance[38] 	2.5366995073892
scalar tree_4_3_u03_r7_network.client[38] 	downloads[38] 	12180
scalar tree_4_3_u03_r7_network.client[38] 	avg_time[38] 	0.003976680041
scalar tree_4_3_u03_r7_network.client[39] 	hdistance[39] 	2.6200133533634
scalar tree_4_3_u03_r7_network.client[39] 	downloads[39] 	11982
scalar tree_4_3_u03_r7_network.client[39] 	avg_time[39] 	0.004093470537
