version 2
run General-211-20160901-01:01:53-8710
attr a 0.9
attr cd ffc0.25
attr configname General
attr cr lru
attr datetime 20160901-01:01:53
attr experiment General
attr fsize 1
attr inifile hw5115/scenario_Y/omnetp.ini
attr iterationvars "$name=tree_4_3, $un=03, $rep=11, $cd=ffc0.25, $cr=lru, $fsize=1, $a=0.9, $sl=nrr, $ttl=1000, $variance=0.05"
attr iterationvars2 "$name=tree_4_3, $un=03, $rep=11, $cd=ffc0.25, $cr=lru, $fsize=1, $a=0.9, $sl=nrr, $ttl=1000, $variance=0.05, $repetition=0"
attr measurement "$name=tree_4_3, $un=03, $rep=11, $cd=ffc0.25, $cr=lru, $fsize=1, $a=0.9, $sl=nrr, $ttl=1000, $variance=0.05"
attr name tree_4_3
attr network networks.${name}_u${un}_r${rep}_network
attr processid 8710
attr rep 11
attr repetition 0
attr replication #0
attr resultdir results
attr runnumber 211
attr seedset 11
attr sl nrr
attr ttl 1000
attr un 03
attr variance 0.05

scalar . 	a 	0.9
scalar . 	fsize 	1
scalar . 	rep 	11
scalar . 	ttl 	1000
scalar . 	un 	03
scalar . 	variance 	0.05
scalar tree_4_3_u03_r11_network.content_distribution 	repo-0 	0
scalar tree_4_3_u03_r11_network.content_distribution 	client-0 	13
scalar tree_4_3_u03_r11_network.content_distribution 	client-1 	14
scalar tree_4_3_u03_r11_network.content_distribution 	client-2 	15
scalar tree_4_3_u03_r11_network.content_distribution 	client-3 	16
scalar tree_4_3_u03_r11_network.content_distribution 	client-4 	17
scalar tree_4_3_u03_r11_network.content_distribution 	client-5 	18
scalar tree_4_3_u03_r11_network.content_distribution 	client-6 	19
scalar tree_4_3_u03_r11_network.content_distribution 	client-7 	20
scalar tree_4_3_u03_r11_network.content_distribution 	client-8 	21
scalar tree_4_3_u03_r11_network.content_distribution 	client-9 	22
scalar tree_4_3_u03_r11_network.content_distribution 	client-10 	23
scalar tree_4_3_u03_r11_network.content_distribution 	client-11 	24
scalar tree_4_3_u03_r11_network.content_distribution 	client-12 	25
scalar tree_4_3_u03_r11_network.content_distribution 	client-13 	26
scalar tree_4_3_u03_r11_network.content_distribution 	client-14 	27
scalar tree_4_3_u03_r11_network.content_distribution 	client-15 	28
scalar tree_4_3_u03_r11_network.content_distribution 	client-16 	29
scalar tree_4_3_u03_r11_network.content_distribution 	client-17 	30
scalar tree_4_3_u03_r11_network.content_distribution 	client-18 	31
scalar tree_4_3_u03_r11_network.content_distribution 	client-19 	32
scalar tree_4_3_u03_r11_network.content_distribution 	client-20 	33
scalar tree_4_3_u03_r11_network.content_distribution 	client-21 	34
scalar tree_4_3_u03_r11_network.content_distribution 	client-22 	35
scalar tree_4_3_u03_r11_network.content_distribution 	client-23 	36
scalar tree_4_3_u03_r11_network.content_distribution 	client-24 	37
scalar tree_4_3_u03_r11_network.content_distribution 	client-25 	38
scalar tree_4_3_u03_r11_network.content_distribution 	client-26 	39
scalar tree_4_3_u03_r11_network.content_distribution 	repo-0_card 	100000
scalar tree_4_3_u03_r11_network.content_distribution 	repo-0_price 	0
scalar tree_4_3_u03_r11_network.statistics 	stabilization_time 	1782
scalar tree_4_3_u03_r11_network.statistics 	p_hit 	0.23138455856188
scalar tree_4_3_u03_r11_network.statistics 	interests 	24727.625
scalar tree_4_3_u03_r11_network.statistics 	data 	16650.775
scalar tree_4_3_u03_r11_network.statistics 	hdistance 	2.6233284297437
scalar tree_4_3_u03_r11_network.statistics 	avg_time 	0.004123096098
scalar tree_4_3_u03_r11_network.statistics 	downloads 	323077
scalar tree_4_3_u03_r11_network.statistics 	total_cost 	0
scalar tree_4_3_u03_r11_network.statistics 	total_replicas 	100000
scalar tree_4_3_u03_r11_network.statistics 	inner_hit 	0.43827632421992
scalar tree_4_3_u03_r11_network.node[0].core_layer 	interests[0] 	184894
scalar tree_4_3_u03_r11_network.node[0].core_layer 	repo_load[0] 	181480
scalar tree_4_3_u03_r11_network.node[0].core_layer 	data[0] 	0
scalar tree_4_3_u03_r11_network.node[0].core_layer 	repo_int[0] 	181480
scalar tree_4_3_u03_r11_network.node[0].content_store 	p_hit[0] 	0.018464633790172
scalar tree_4_3_u03_r11_network.node[0].content_store 	hits[0] 	3414
scalar tree_4_3_u03_r11_network.node[0].content_store 	misses[0] 	181480
scalar tree_4_3_u03_r11_network.node[0].content_store 	decision_yes[0] 	200
scalar tree_4_3_u03_r11_network.node[0].content_store 	decision_no[0] 	181280
scalar tree_4_3_u03_r11_network.node[0].content_store 	decision_ratio[0] 	0.0011020498126515
scalar tree_4_3_u03_r11_network.node[1].core_layer 	interests[1] 	96006
scalar tree_4_3_u03_r11_network.node[1].core_layer 	data[1] 	93155
scalar tree_4_3_u03_r11_network.node[1].content_store 	p_hit[1] 	0.02968564464721
scalar tree_4_3_u03_r11_network.node[1].content_store 	hits[1] 	2850
scalar tree_4_3_u03_r11_network.node[1].content_store 	misses[1] 	93156
scalar tree_4_3_u03_r11_network.node[1].content_store 	decision_yes[1] 	114
scalar tree_4_3_u03_r11_network.node[1].content_store 	decision_no[1] 	93041
scalar tree_4_3_u03_r11_network.node[1].content_store 	decision_ratio[1] 	0.0012237668402125
scalar tree_4_3_u03_r11_network.node[2].core_layer 	interests[2] 	69970
scalar tree_4_3_u03_r11_network.node[2].core_layer 	data[2] 	67101
scalar tree_4_3_u03_r11_network.node[2].content_store 	p_hit[2] 	0.040974703444333
scalar tree_4_3_u03_r11_network.node[2].content_store 	hits[2] 	2867
scalar tree_4_3_u03_r11_network.node[2].content_store 	misses[2] 	67103
scalar tree_4_3_u03_r11_network.node[2].content_store 	decision_yes[2] 	106
scalar tree_4_3_u03_r11_network.node[2].content_store 	decision_no[2] 	66995
scalar tree_4_3_u03_r11_network.node[2].content_store 	decision_ratio[2] 	0.00157970820107
scalar tree_4_3_u03_r11_network.node[3].core_layer 	interests[3] 	46150
scalar tree_4_3_u03_r11_network.node[3].core_layer 	data[3] 	41725
scalar tree_4_3_u03_r11_network.node[3].content_store 	p_hit[3] 	0.095882990249187
scalar tree_4_3_u03_r11_network.node[3].content_store 	hits[3] 	4425
scalar tree_4_3_u03_r11_network.node[3].content_store 	misses[3] 	41725
scalar tree_4_3_u03_r11_network.node[3].content_store 	decision_yes[3] 	120
scalar tree_4_3_u03_r11_network.node[3].content_store 	decision_no[3] 	41605
scalar tree_4_3_u03_r11_network.node[3].content_store 	decision_ratio[3] 	0.0028759736369083
scalar tree_4_3_u03_r11_network.node[4].core_layer 	interests[4] 	26193
scalar tree_4_3_u03_r11_network.node[4].core_layer 	data[4] 	24226
scalar tree_4_3_u03_r11_network.node[4].content_store 	p_hit[4] 	0.075096399801474
scalar tree_4_3_u03_r11_network.node[4].content_store 	hits[4] 	1967
scalar tree_4_3_u03_r11_network.node[4].content_store 	misses[4] 	24226
scalar tree_4_3_u03_r11_network.node[4].content_store 	decision_yes[4] 	52
scalar tree_4_3_u03_r11_network.node[4].content_store 	decision_no[4] 	24174
scalar tree_4_3_u03_r11_network.node[4].content_store 	decision_ratio[4] 	0.0021464542227359
scalar tree_4_3_u03_r11_network.node[5].core_layer 	interests[5] 	28220
scalar tree_4_3_u03_r11_network.node[5].core_layer 	data[5] 	25131
scalar tree_4_3_u03_r11_network.node[5].content_store 	p_hit[5] 	0.1094968107725
scalar tree_4_3_u03_r11_network.node[5].content_store 	hits[5] 	3090
scalar tree_4_3_u03_r11_network.node[5].content_store 	misses[5] 	25130
scalar tree_4_3_u03_r11_network.node[5].content_store 	decision_yes[5] 	67
scalar tree_4_3_u03_r11_network.node[5].content_store 	decision_no[5] 	25064
scalar tree_4_3_u03_r11_network.node[5].content_store 	decision_ratio[5] 	0.0026660300027854
scalar tree_4_3_u03_r11_network.node[6].core_layer 	interests[6] 	30975
scalar tree_4_3_u03_r11_network.node[6].core_layer 	data[6] 	26991
scalar tree_4_3_u03_r11_network.node[6].content_store 	p_hit[6] 	0.12865213882163
scalar tree_4_3_u03_r11_network.node[6].content_store 	hits[6] 	3985
scalar tree_4_3_u03_r11_network.node[6].content_store 	misses[6] 	26990
scalar tree_4_3_u03_r11_network.node[6].content_store 	decision_yes[6] 	80
scalar tree_4_3_u03_r11_network.node[6].content_store 	decision_no[6] 	26911
scalar tree_4_3_u03_r11_network.node[6].content_store 	decision_ratio[6] 	0.0029639509466118
scalar tree_4_3_u03_r11_network.node[7].core_layer 	interests[7] 	27192
scalar tree_4_3_u03_r11_network.node[7].core_layer 	data[7] 	24989
scalar tree_4_3_u03_r11_network.node[7].content_store 	p_hit[7] 	0.080942924389526
scalar tree_4_3_u03_r11_network.node[7].content_store 	hits[7] 	2201
scalar tree_4_3_u03_r11_network.node[7].content_store 	misses[7] 	24991
scalar tree_4_3_u03_r11_network.node[7].content_store 	decision_yes[7] 	77
scalar tree_4_3_u03_r11_network.node[7].content_store 	decision_no[7] 	24912
scalar tree_4_3_u03_r11_network.node[7].content_store 	decision_ratio[7] 	0.0030813557965505
scalar tree_4_3_u03_r11_network.node[8].core_layer 	interests[8] 	26360
scalar tree_4_3_u03_r11_network.node[8].core_layer 	data[8] 	24216
scalar tree_4_3_u03_r11_network.node[8].content_store 	p_hit[8] 	0.08133535660091
scalar tree_4_3_u03_r11_network.node[8].content_store 	hits[8] 	2144
scalar tree_4_3_u03_r11_network.node[8].content_store 	misses[8] 	24216
scalar tree_4_3_u03_r11_network.node[8].content_store 	decision_yes[8] 	58
scalar tree_4_3_u03_r11_network.node[8].content_store 	decision_no[8] 	24158
scalar tree_4_3_u03_r11_network.node[8].content_store 	decision_ratio[8] 	0.002395110670631
scalar tree_4_3_u03_r11_network.node[9].core_layer 	interests[9] 	30464
scalar tree_4_3_u03_r11_network.node[9].core_layer 	data[9] 	26512
scalar tree_4_3_u03_r11_network.node[9].content_store 	p_hit[9] 	0.1297268907563
scalar tree_4_3_u03_r11_network.node[9].content_store 	hits[9] 	3952
scalar tree_4_3_u03_r11_network.node[9].content_store 	misses[9] 	26512
scalar tree_4_3_u03_r11_network.node[9].content_store 	decision_yes[9] 	94
scalar tree_4_3_u03_r11_network.node[9].content_store 	decision_no[9] 	26418
scalar tree_4_3_u03_r11_network.node[9].content_store 	decision_ratio[9] 	0.0035455642727821
scalar tree_4_3_u03_r11_network.node[10].core_layer 	interests[10] 	37214
scalar tree_4_3_u03_r11_network.node[10].core_layer 	data[10] 	33775
scalar tree_4_3_u03_r11_network.node[10].content_store 	p_hit[10] 	0.092411458053421
scalar tree_4_3_u03_r11_network.node[10].content_store 	hits[10] 	3439
scalar tree_4_3_u03_r11_network.node[10].content_store 	misses[10] 	33775
scalar tree_4_3_u03_r11_network.node[10].content_store 	decision_yes[10] 	78
scalar tree_4_3_u03_r11_network.node[10].content_store 	decision_no[10] 	33697
scalar tree_4_3_u03_r11_network.node[10].content_store 	decision_ratio[10] 	0.0023094004441155
scalar tree_4_3_u03_r11_network.node[11].core_layer 	interests[11] 	19423
scalar tree_4_3_u03_r11_network.node[11].core_layer 	data[11] 	17040
scalar tree_4_3_u03_r11_network.node[11].content_store 	p_hit[11] 	0.12268959481028
scalar tree_4_3_u03_r11_network.node[11].content_store 	hits[11] 	2383
scalar tree_4_3_u03_r11_network.node[11].content_store 	misses[11] 	17040
scalar tree_4_3_u03_r11_network.node[11].content_store 	decision_yes[11] 	53
scalar tree_4_3_u03_r11_network.node[11].content_store 	decision_no[11] 	16987
scalar tree_4_3_u03_r11_network.node[11].content_store 	decision_ratio[11] 	0.0031103286384977
scalar tree_4_3_u03_r11_network.node[12].core_layer 	interests[12] 	27326
scalar tree_4_3_u03_r11_network.node[12].core_layer 	data[12] 	24888
scalar tree_4_3_u03_r11_network.node[12].content_store 	p_hit[12] 	0.089219058771866
scalar tree_4_3_u03_r11_network.node[12].content_store 	hits[12] 	2438
scalar tree_4_3_u03_r11_network.node[12].content_store 	misses[12] 	24888
scalar tree_4_3_u03_r11_network.node[12].content_store 	decision_yes[12] 	65
scalar tree_4_3_u03_r11_network.node[12].content_store 	decision_no[12] 	24823
scalar tree_4_3_u03_r11_network.node[12].content_store 	decision_ratio[12] 	0.0026117004178721
scalar tree_4_3_u03_r11_network.node[13].core_layer 	interests[13] 	12205
scalar tree_4_3_u03_r11_network.node[13].core_layer 	data[13] 	8712
scalar tree_4_3_u03_r11_network.node[13].content_store 	p_hit[13] 	0.286194182712
scalar tree_4_3_u03_r11_network.node[13].content_store 	hits[13] 	3493
scalar tree_4_3_u03_r11_network.node[13].content_store 	misses[13] 	8712
scalar tree_4_3_u03_r11_network.node[13].content_store 	decision_yes[13] 	39
scalar tree_4_3_u03_r11_network.node[13].content_store 	decision_no[13] 	8673
scalar tree_4_3_u03_r11_network.node[13].content_store 	decision_ratio[13] 	0.0044765840220386
scalar tree_4_3_u03_r11_network.node[14].core_layer 	interests[14] 	12280
scalar tree_4_3_u03_r11_network.node[14].core_layer 	data[14] 	8693
scalar tree_4_3_u03_r11_network.node[14].content_store 	p_hit[14] 	0.2921009771987
scalar tree_4_3_u03_r11_network.node[14].content_store 	hits[14] 	3587
scalar tree_4_3_u03_r11_network.node[14].content_store 	misses[14] 	8693
scalar tree_4_3_u03_r11_network.node[14].content_store 	decision_yes[14] 	26
scalar tree_4_3_u03_r11_network.node[14].content_store 	decision_no[14] 	8667
scalar tree_4_3_u03_r11_network.node[14].content_store 	decision_ratio[14] 	0.0029909122282296
scalar tree_4_3_u03_r11_network.node[15].core_layer 	interests[15] 	12946
scalar tree_4_3_u03_r11_network.node[15].core_layer 	data[15] 	8947
scalar tree_4_3_u03_r11_network.node[15].content_store 	p_hit[15] 	0.30889850146763
scalar tree_4_3_u03_r11_network.node[15].content_store 	hits[15] 	3999
scalar tree_4_3_u03_r11_network.node[15].content_store 	misses[15] 	8947
scalar tree_4_3_u03_r11_network.node[15].content_store 	decision_yes[15] 	40
scalar tree_4_3_u03_r11_network.node[15].content_store 	decision_no[15] 	8907
scalar tree_4_3_u03_r11_network.node[15].content_store 	decision_ratio[15] 	0.0044707723259193
scalar tree_4_3_u03_r11_network.node[16].core_layer 	interests[16] 	12453
scalar tree_4_3_u03_r11_network.node[16].core_layer 	data[16] 	8784
scalar tree_4_3_u03_r11_network.node[16].content_store 	p_hit[16] 	0.29462780052999
scalar tree_4_3_u03_r11_network.node[16].content_store 	hits[16] 	3669
scalar tree_4_3_u03_r11_network.node[16].content_store 	misses[16] 	8784
scalar tree_4_3_u03_r11_network.node[16].content_store 	decision_yes[16] 	29
scalar tree_4_3_u03_r11_network.node[16].content_store 	decision_no[16] 	8755
scalar tree_4_3_u03_r11_network.node[16].content_store 	decision_ratio[16] 	0.0033014571948998
scalar tree_4_3_u03_r11_network.node[17].core_layer 	interests[17] 	12681
scalar tree_4_3_u03_r11_network.node[17].core_layer 	data[17] 	8997
scalar tree_4_3_u03_r11_network.node[17].content_store 	p_hit[17] 	0.29059222458797
scalar tree_4_3_u03_r11_network.node[17].content_store 	hits[17] 	3685
scalar tree_4_3_u03_r11_network.node[17].content_store 	misses[17] 	8996
scalar tree_4_3_u03_r11_network.node[17].content_store 	decision_yes[17] 	30
scalar tree_4_3_u03_r11_network.node[17].content_store 	decision_no[17] 	8967
scalar tree_4_3_u03_r11_network.node[17].content_store 	decision_ratio[17] 	0.0033344448149383
scalar tree_4_3_u03_r11_network.node[18].core_layer 	interests[18] 	13096
scalar tree_4_3_u03_r11_network.node[18].core_layer 	data[18] 	8829
scalar tree_4_3_u03_r11_network.node[18].content_store 	p_hit[18] 	0.32582467929139
scalar tree_4_3_u03_r11_network.node[18].content_store 	hits[18] 	4267
scalar tree_4_3_u03_r11_network.node[18].content_store 	misses[18] 	8829
scalar tree_4_3_u03_r11_network.node[18].content_store 	decision_yes[18] 	20
scalar tree_4_3_u03_r11_network.node[18].content_store 	decision_no[18] 	8809
scalar tree_4_3_u03_r11_network.node[18].content_store 	decision_ratio[18] 	0.0022652622041001
scalar tree_4_3_u03_r11_network.node[19].core_layer 	interests[19] 	12531
scalar tree_4_3_u03_r11_network.node[19].core_layer 	data[19] 	8708
scalar tree_4_3_u03_r11_network.node[19].content_store 	p_hit[19] 	0.30500359109409
scalar tree_4_3_u03_r11_network.node[19].content_store 	hits[19] 	3822
scalar tree_4_3_u03_r11_network.node[19].content_store 	misses[19] 	8709
scalar tree_4_3_u03_r11_network.node[19].content_store 	decision_yes[19] 	26
scalar tree_4_3_u03_r11_network.node[19].content_store 	decision_no[19] 	8682
scalar tree_4_3_u03_r11_network.node[19].content_store 	decision_ratio[19] 	0.0029857602204869
scalar tree_4_3_u03_r11_network.node[20].core_layer 	interests[20] 	12552
scalar tree_4_3_u03_r11_network.node[20].core_layer 	data[20] 	8715
scalar tree_4_3_u03_r11_network.node[20].content_store 	p_hit[20] 	0.30568833652008
scalar tree_4_3_u03_r11_network.node[20].content_store 	hits[20] 	3837
scalar tree_4_3_u03_r11_network.node[20].content_store 	misses[20] 	8715
scalar tree_4_3_u03_r11_network.node[20].content_store 	decision_yes[20] 	21
scalar tree_4_3_u03_r11_network.node[20].content_store 	decision_no[20] 	8694
scalar tree_4_3_u03_r11_network.node[20].content_store 	decision_ratio[20] 	0.0024096385542169
scalar tree_4_3_u03_r11_network.node[21].core_layer 	interests[21] 	12594
scalar tree_4_3_u03_r11_network.node[21].core_layer 	data[21] 	8842
scalar tree_4_3_u03_r11_network.node[21].content_store 	p_hit[21] 	0.29791964427505
scalar tree_4_3_u03_r11_network.node[21].content_store 	hits[21] 	3752
scalar tree_4_3_u03_r11_network.node[21].content_store 	misses[21] 	8842
scalar tree_4_3_u03_r11_network.node[21].content_store 	decision_yes[21] 	25
scalar tree_4_3_u03_r11_network.node[21].content_store 	decision_no[21] 	8817
scalar tree_4_3_u03_r11_network.node[21].content_store 	decision_ratio[21] 	0.0028274146120787
scalar tree_4_3_u03_r11_network.node[22].core_layer 	interests[22] 	12300
scalar tree_4_3_u03_r11_network.node[22].core_layer 	data[22] 	8554
scalar tree_4_3_u03_r11_network.node[22].content_store 	p_hit[22] 	0.30455284552846
scalar tree_4_3_u03_r11_network.node[22].content_store 	hits[22] 	3746
scalar tree_4_3_u03_r11_network.node[22].content_store 	misses[22] 	8554
scalar tree_4_3_u03_r11_network.node[22].content_store 	decision_yes[22] 	26
scalar tree_4_3_u03_r11_network.node[22].content_store 	decision_no[22] 	8528
scalar tree_4_3_u03_r11_network.node[22].content_store 	decision_ratio[22] 	0.0030395136778116
scalar tree_4_3_u03_r11_network.node[23].core_layer 	interests[23] 	12390
scalar tree_4_3_u03_r11_network.node[23].core_layer 	data[23] 	8764
scalar tree_4_3_u03_r11_network.node[23].content_store 	p_hit[23] 	0.29257465698144
scalar tree_4_3_u03_r11_network.node[23].content_store 	hits[23] 	3625
scalar tree_4_3_u03_r11_network.node[23].content_store 	misses[23] 	8765
scalar tree_4_3_u03_r11_network.node[23].content_store 	decision_yes[23] 	30
scalar tree_4_3_u03_r11_network.node[23].content_store 	decision_no[23] 	8734
scalar tree_4_3_u03_r11_network.node[23].content_store 	decision_ratio[23] 	0.0034230944774076
scalar tree_4_3_u03_r11_network.node[24].core_layer 	interests[24] 	12535
scalar tree_4_3_u03_r11_network.node[24].core_layer 	data[24] 	8750
scalar tree_4_3_u03_r11_network.node[24].content_store 	p_hit[24] 	0.30195452732349
scalar tree_4_3_u03_r11_network.node[24].content_store 	hits[24] 	3785
scalar tree_4_3_u03_r11_network.node[24].content_store 	misses[24] 	8750
scalar tree_4_3_u03_r11_network.node[24].content_store 	decision_yes[24] 	29
scalar tree_4_3_u03_r11_network.node[24].content_store 	decision_no[24] 	8721
scalar tree_4_3_u03_r11_network.node[24].content_store 	decision_ratio[24] 	0.0033142857142857
scalar tree_4_3_u03_r11_network.node[25].core_layer 	interests[25] 	12451
scalar tree_4_3_u03_r11_network.node[25].core_layer 	data[25] 	8831
scalar tree_4_3_u03_r11_network.node[25].content_store 	p_hit[25] 	0.29073969962252
scalar tree_4_3_u03_r11_network.node[25].content_store 	hits[25] 	3620
scalar tree_4_3_u03_r11_network.node[25].content_store 	misses[25] 	8831
scalar tree_4_3_u03_r11_network.node[25].content_store 	decision_yes[25] 	31
scalar tree_4_3_u03_r11_network.node[25].content_store 	decision_no[25] 	8800
scalar tree_4_3_u03_r11_network.node[25].content_store 	decision_ratio[25] 	0.0035103612274941
scalar tree_4_3_u03_r11_network.node[26].core_layer 	interests[26] 	12216
scalar tree_4_3_u03_r11_network.node[26].core_layer 	data[26] 	8508
scalar tree_4_3_u03_r11_network.node[26].content_store 	p_hit[26] 	0.30353634577603
scalar tree_4_3_u03_r11_network.node[26].content_store 	hits[26] 	3708
scalar tree_4_3_u03_r11_network.node[26].content_store 	misses[26] 	8508
scalar tree_4_3_u03_r11_network.node[26].content_store 	decision_yes[26] 	29
scalar tree_4_3_u03_r11_network.node[26].content_store 	decision_no[26] 	8479
scalar tree_4_3_u03_r11_network.node[26].content_store 	decision_ratio[26] 	0.0034085566525623
scalar tree_4_3_u03_r11_network.node[27].core_layer 	interests[27] 	13085
scalar tree_4_3_u03_r11_network.node[27].core_layer 	data[27] 	8889
scalar tree_4_3_u03_r11_network.node[27].content_store 	p_hit[27] 	0.32067252579289
scalar tree_4_3_u03_r11_network.node[27].content_store 	hits[27] 	4196
scalar tree_4_3_u03_r11_network.node[27].content_store 	misses[27] 	8889
scalar tree_4_3_u03_r11_network.node[27].content_store 	decision_yes[27] 	31
scalar tree_4_3_u03_r11_network.node[27].content_store 	decision_no[27] 	8858
scalar tree_4_3_u03_r11_network.node[27].content_store 	decision_ratio[27] 	0.0034874564067949
scalar tree_4_3_u03_r11_network.node[28].core_layer 	interests[28] 	12571
scalar tree_4_3_u03_r11_network.node[28].core_layer 	data[28] 	8671
scalar tree_4_3_u03_r11_network.node[28].content_store 	p_hit[28] 	0.31023784901758
scalar tree_4_3_u03_r11_network.node[28].content_store 	hits[28] 	3900
scalar tree_4_3_u03_r11_network.node[28].content_store 	misses[28] 	8671
scalar tree_4_3_u03_r11_network.node[28].content_store 	decision_yes[28] 	24
scalar tree_4_3_u03_r11_network.node[28].content_store 	decision_no[28] 	8647
scalar tree_4_3_u03_r11_network.node[28].content_store 	decision_ratio[28] 	0.0027678468458079
scalar tree_4_3_u03_r11_network.node[29].core_layer 	interests[29] 	12632
scalar tree_4_3_u03_r11_network.node[29].core_layer 	data[29] 	8728
scalar tree_4_3_u03_r11_network.node[29].content_store 	p_hit[29] 	0.30897720075997
scalar tree_4_3_u03_r11_network.node[29].content_store 	hits[29] 	3903
scalar tree_4_3_u03_r11_network.node[29].content_store 	misses[29] 	8729
scalar tree_4_3_u03_r11_network.node[29].content_store 	decision_yes[29] 	24
scalar tree_4_3_u03_r11_network.node[29].content_store 	decision_no[29] 	8704
scalar tree_4_3_u03_r11_network.node[29].content_store 	decision_ratio[29] 	0.002749770852429
scalar tree_4_3_u03_r11_network.node[30].core_layer 	interests[30] 	12751
scalar tree_4_3_u03_r11_network.node[30].core_layer 	data[30] 	8885
scalar tree_4_3_u03_r11_network.node[30].content_store 	p_hit[30] 	0.30327033173869
scalar tree_4_3_u03_r11_network.node[30].content_store 	hits[30] 	3867
scalar tree_4_3_u03_r11_network.node[30].content_store 	misses[30] 	8884
scalar tree_4_3_u03_r11_network.node[30].content_store 	decision_yes[30] 	21
scalar tree_4_3_u03_r11_network.node[30].content_store 	decision_no[30] 	8864
scalar tree_4_3_u03_r11_network.node[30].content_store 	decision_ratio[30] 	0.0023635340461452
scalar tree_4_3_u03_r11_network.node[31].core_layer 	interests[31] 	12647
scalar tree_4_3_u03_r11_network.node[31].core_layer 	data[31] 	8854
scalar tree_4_3_u03_r11_network.node[31].content_store 	p_hit[31] 	0.29991302285127
scalar tree_4_3_u03_r11_network.node[31].content_store 	hits[31] 	3793
scalar tree_4_3_u03_r11_network.node[31].content_store 	misses[31] 	8854
scalar tree_4_3_u03_r11_network.node[31].content_store 	decision_yes[31] 	21
scalar tree_4_3_u03_r11_network.node[31].content_store 	decision_no[31] 	8833
scalar tree_4_3_u03_r11_network.node[31].content_store 	decision_ratio[31] 	0.0023718093517054
scalar tree_4_3_u03_r11_network.node[32].core_layer 	interests[32] 	12423
scalar tree_4_3_u03_r11_network.node[32].core_layer 	data[32] 	8709
scalar tree_4_3_u03_r11_network.node[32].content_store 	p_hit[32] 	0.29896160347742
scalar tree_4_3_u03_r11_network.node[32].content_store 	hits[32] 	3714
scalar tree_4_3_u03_r11_network.node[32].content_store 	misses[32] 	8709
scalar tree_4_3_u03_r11_network.node[32].content_store 	decision_yes[32] 	34
scalar tree_4_3_u03_r11_network.node[32].content_store 	decision_no[32] 	8675
scalar tree_4_3_u03_r11_network.node[32].content_store 	decision_ratio[32] 	0.0039040073487197
scalar tree_4_3_u03_r11_network.node[33].core_layer 	interests[33] 	12597
scalar tree_4_3_u03_r11_network.node[33].core_layer 	data[33] 	8701
scalar tree_4_3_u03_r11_network.node[33].content_store 	p_hit[33] 	0.30927998729856
scalar tree_4_3_u03_r11_network.node[33].content_store 	hits[33] 	3896
scalar tree_4_3_u03_r11_network.node[33].content_store 	misses[33] 	8701
scalar tree_4_3_u03_r11_network.node[33].content_store 	decision_yes[33] 	29
scalar tree_4_3_u03_r11_network.node[33].content_store 	decision_no[33] 	8672
scalar tree_4_3_u03_r11_network.node[33].content_store 	decision_ratio[33] 	0.0033329502356051
scalar tree_4_3_u03_r11_network.node[34].core_layer 	interests[34] 	13139
scalar tree_4_3_u03_r11_network.node[34].core_layer 	data[34] 	8823
scalar tree_4_3_u03_r11_network.node[34].content_store 	p_hit[34] 	0.32848770834919
scalar tree_4_3_u03_r11_network.node[34].content_store 	hits[34] 	4316
scalar tree_4_3_u03_r11_network.node[34].content_store 	misses[34] 	8823
scalar tree_4_3_u03_r11_network.node[34].content_store 	decision_yes[34] 	33
scalar tree_4_3_u03_r11_network.node[34].content_store 	decision_no[34] 	8790
scalar tree_4_3_u03_r11_network.node[34].content_store 	decision_ratio[34] 	0.0037402244134648
scalar tree_4_3_u03_r11_network.node[35].core_layer 	interests[35] 	12129
scalar tree_4_3_u03_r11_network.node[35].core_layer 	data[35] 	8578
scalar tree_4_3_u03_r11_network.node[35].content_store 	p_hit[35] 	0.29276939566329
scalar tree_4_3_u03_r11_network.node[35].content_store 	hits[35] 	3551
scalar tree_4_3_u03_r11_network.node[35].content_store 	misses[35] 	8578
scalar tree_4_3_u03_r11_network.node[35].content_store 	decision_yes[35] 	25
scalar tree_4_3_u03_r11_network.node[35].content_store 	decision_no[35] 	8553
scalar tree_4_3_u03_r11_network.node[35].content_store 	decision_ratio[35] 	0.0029144322685941
scalar tree_4_3_u03_r11_network.node[36].core_layer 	interests[36] 	12545
scalar tree_4_3_u03_r11_network.node[36].core_layer 	data[36] 	8935
scalar tree_4_3_u03_r11_network.node[36].content_store 	p_hit[36] 	0.28776404942208
scalar tree_4_3_u03_r11_network.node[36].content_store 	hits[36] 	3610
scalar tree_4_3_u03_r11_network.node[36].content_store 	misses[36] 	8935
scalar tree_4_3_u03_r11_network.node[36].content_store 	decision_yes[36] 	38
scalar tree_4_3_u03_r11_network.node[36].content_store 	decision_no[36] 	8897
scalar tree_4_3_u03_r11_network.node[36].content_store 	decision_ratio[36] 	0.004252937884723
scalar tree_4_3_u03_r11_network.node[37].core_layer 	interests[37] 	12499
scalar tree_4_3_u03_r11_network.node[37].core_layer 	data[37] 	8745
scalar tree_4_3_u03_r11_network.node[37].content_store 	p_hit[37] 	0.3003440275222
scalar tree_4_3_u03_r11_network.node[37].content_store 	hits[37] 	3754
scalar tree_4_3_u03_r11_network.node[37].content_store 	misses[37] 	8745
scalar tree_4_3_u03_r11_network.node[37].content_store 	decision_yes[37] 	23
scalar tree_4_3_u03_r11_network.node[37].content_store 	decision_no[37] 	8722
scalar tree_4_3_u03_r11_network.node[37].content_store 	decision_ratio[37] 	0.0026300743281875
scalar tree_4_3_u03_r11_network.node[38].core_layer 	interests[38] 	12238
scalar tree_4_3_u03_r11_network.node[38].core_layer 	data[38] 	8561
scalar tree_4_3_u03_r11_network.node[38].content_store 	p_hit[38] 	0.30045759110966
scalar tree_4_3_u03_r11_network.node[38].content_store 	hits[38] 	3677
scalar tree_4_3_u03_r11_network.node[38].content_store 	misses[38] 	8561
scalar tree_4_3_u03_r11_network.node[38].content_store 	decision_yes[38] 	27
scalar tree_4_3_u03_r11_network.node[38].content_store 	decision_no[38] 	8534
scalar tree_4_3_u03_r11_network.node[38].content_store 	decision_ratio[38] 	0.0031538371685551
scalar tree_4_3_u03_r11_network.node[39].core_layer 	interests[39] 	12232
scalar tree_4_3_u03_r11_network.node[39].core_layer 	data[39] 	8569
scalar tree_4_3_u03_r11_network.node[39].content_store 	p_hit[39] 	0.29946043165468
scalar tree_4_3_u03_r11_network.node[39].content_store 	hits[39] 	3663
scalar tree_4_3_u03_r11_network.node[39].content_store 	misses[39] 	8569
scalar tree_4_3_u03_r11_network.node[39].content_store 	decision_yes[39] 	35
scalar tree_4_3_u03_r11_network.node[39].content_store 	decision_no[39] 	8534
scalar tree_4_3_u03_r11_network.node[39].content_store 	decision_ratio[39] 	0.0040844906056716
scalar tree_4_3_u03_r11_network.client[13] 	hdistance[13] 	2.6841085271318
scalar tree_4_3_u03_r11_network.client[13] 	downloads[13] 	11868
scalar tree_4_3_u03_r11_network.client[13] 	avg_time[13] 	0.004196997331
scalar tree_4_3_u03_r11_network.client[14] 	hdistance[14] 	2.6568824218097
scalar tree_4_3_u03_r11_network.client[14] 	downloads[14] 	11958
scalar tree_4_3_u03_r11_network.client[14] 	avg_time[14] 	0.00416290051
scalar tree_4_3_u03_r11_network.client[15] 	hdistance[15] 	2.5879960152748
scalar tree_4_3_u03_r11_network.client[15] 	downloads[15] 	12046
scalar tree_4_3_u03_r11_network.client[15] 	avg_time[15] 	0.004060265934
scalar tree_4_3_u03_r11_network.client[16] 	hdistance[16] 	2.634
scalar tree_4_3_u03_r11_network.client[16] 	downloads[16] 	12000
scalar tree_4_3_u03_r11_network.client[16] 	avg_time[16] 	0.00415966366
scalar tree_4_3_u03_r11_network.client[17] 	hdistance[17] 	2.6563551325183
scalar tree_4_3_u03_r11_network.client[17] 	downloads[17] 	12187
scalar tree_4_3_u03_r11_network.client[17] 	avg_time[17] 	0.004194466446
scalar tree_4_3_u03_r11_network.client[18] 	hdistance[18] 	2.5622603767295
scalar tree_4_3_u03_r11_network.client[18] 	downloads[18] 	11998
scalar tree_4_3_u03_r11_network.client[18] 	avg_time[18] 	0.004041088156
scalar tree_4_3_u03_r11_network.client[19] 	hdistance[19] 	2.5866322193516
scalar tree_4_3_u03_r11_network.client[19] 	downloads[19] 	11999
scalar tree_4_3_u03_r11_network.client[19] 	avg_time[19] 	0.004071271212
scalar tree_4_3_u03_r11_network.client[20] 	hdistance[20] 	2.5891427618412
scalar tree_4_3_u03_r11_network.client[20] 	downloads[20] 	11992
scalar tree_4_3_u03_r11_network.client[20] 	avg_time[20] 	0.004082718832
scalar tree_4_3_u03_r11_network.client[21] 	hdistance[21] 	2.6281847798847
scalar tree_4_3_u03_r11_network.client[21] 	downloads[21] 	11971
scalar tree_4_3_u03_r11_network.client[21] 	avg_time[21] 	0.004139667868
scalar tree_4_3_u03_r11_network.client[22] 	hdistance[22] 	2.6261603375527
scalar tree_4_3_u03_r11_network.client[22] 	downloads[22] 	11850
scalar tree_4_3_u03_r11_network.client[22] 	avg_time[22] 	0.004112481454
scalar tree_4_3_u03_r11_network.client[23] 	hdistance[23] 	2.6473139806473
scalar tree_4_3_u03_r11_network.client[23] 	downloads[23] 	11988
scalar tree_4_3_u03_r11_network.client[23] 	avg_time[23] 	0.004139535562
scalar tree_4_3_u03_r11_network.client[24] 	hdistance[24] 	2.6434985034918
scalar tree_4_3_u03_r11_network.client[24] 	downloads[24] 	12028
scalar tree_4_3_u03_r11_network.client[24] 	avg_time[24] 	0.0041278653
scalar tree_4_3_u03_r11_network.client[25] 	hdistance[25] 	2.6747048062531
scalar tree_4_3_u03_r11_network.client[25] 	downloads[25] 	12026
scalar tree_4_3_u03_r11_network.client[25] 	avg_time[25] 	0.004178111049
scalar tree_4_3_u03_r11_network.client[26] 	hdistance[26] 	2.6254129606099
scalar tree_4_3_u03_r11_network.client[26] 	downloads[26] 	11805
scalar tree_4_3_u03_r11_network.client[26] 	avg_time[26] 	0.004101486486
scalar tree_4_3_u03_r11_network.client[27] 	hdistance[27] 	2.5982284616027
scalar tree_4_3_u03_r11_network.client[27] 	downloads[27] 	11967
scalar tree_4_3_u03_r11_network.client[27] 	avg_time[27] 	0.004087367901
scalar tree_4_3_u03_r11_network.client[28] 	hdistance[28] 	2.5721181856013
scalar tree_4_3_u03_r11_network.client[28] 	downloads[28] 	12015
scalar tree_4_3_u03_r11_network.client[28] 	avg_time[28] 	0.004062918366
scalar tree_4_3_u03_r11_network.client[29] 	hdistance[29] 	2.5967191273212
scalar tree_4_3_u03_r11_network.client[29] 	downloads[29] 	12009
scalar tree_4_3_u03_r11_network.client[29] 	avg_time[29] 	0.004102236875
scalar tree_4_3_u03_r11_network.client[30] 	hdistance[30] 	2.6090368412357
scalar tree_4_3_u03_r11_network.client[30] 	downloads[30] 	12106
scalar tree_4_3_u03_r11_network.client[30] 	avg_time[30] 	0.004118615838
scalar tree_4_3_u03_r11_network.client[31] 	hdistance[31] 	2.6409144001335
scalar tree_4_3_u03_r11_network.client[31] 	downloads[31] 	11986
scalar tree_4_3_u03_r11_network.client[31] 	avg_time[31] 	0.004161155962
scalar tree_4_3_u03_r11_network.client[32] 	hdistance[32] 	2.6169259384511
scalar tree_4_3_u03_r11_network.client[32] 	downloads[32] 	11828
scalar tree_4_3_u03_r11_network.client[32] 	avg_time[32] 	0.004131549301
scalar tree_4_3_u03_r11_network.client[33] 	hdistance[33] 	2.5956862091939
scalar tree_4_3_u03_r11_network.client[33] 	downloads[33] 	12008
scalar tree_4_3_u03_r11_network.client[33] 	avg_time[33] 	0.004090936363
scalar tree_4_3_u03_r11_network.client[34] 	hdistance[34] 	2.5733555370525
scalar tree_4_3_u03_r11_network.client[34] 	downloads[34] 	12010
scalar tree_4_3_u03_r11_network.client[34] 	avg_time[34] 	0.004043793836
scalar tree_4_3_u03_r11_network.client[35] 	hdistance[35] 	2.6530821041862
scalar tree_4_3_u03_r11_network.client[35] 	downloads[35] 	11729
scalar tree_4_3_u03_r11_network.client[35] 	avg_time[35] 	0.00416471702
scalar tree_4_3_u03_r11_network.client[36] 	hdistance[36] 	2.6568377823409
scalar tree_4_3_u03_r11_network.client[36] 	downloads[36] 	12175
scalar tree_4_3_u03_r11_network.client[36] 	avg_time[36] 	0.004172810078
scalar tree_4_3_u03_r11_network.client[37] 	hdistance[37] 	2.6496417263789
scalar tree_4_3_u03_r11_network.client[37] 	downloads[37] 	12002
scalar tree_4_3_u03_r11_network.client[37] 	avg_time[37] 	0.00415080518
scalar tree_4_3_u03_r11_network.client[38] 	hdistance[38] 	2.6256257955028
scalar tree_4_3_u03_r11_network.client[38] 	downloads[38] 	11785
scalar tree_4_3_u03_r11_network.client[38] 	avg_time[38] 	0.00412201659
scalar tree_4_3_u03_r11_network.client[39] 	hdistance[39] 	2.639042670982
scalar tree_4_3_u03_r11_network.client[39] 	downloads[39] 	11741
scalar tree_4_3_u03_r11_network.client[39] 	avg_time[39] 	0.004146151549
