version 2
run General-1-20160822-12:01:59-23817
attr D ffc0.01
attr F spr
attr R lru
attr a 0.5
attr configname General
attr datetime 20160822-12:01:59
attr experiment General
attr inifile hw5115/scenario_B/bus.ini
attr iterationvars "$net=bus, $rep=0, $a=0.5, $F=spr, $D=ffc0.01, $R=lru, $window=60, $variance=0.05, $mytime=600"
attr iterationvars2 "$net=bus, $rep=0, $a=0.5, $F=spr, $D=ffc0.01, $R=lru, $window=60, $variance=0.05, $mytime=600, $repetition=0"
attr measurement "$net=bus, $rep=0, $a=0.5, $F=spr, $D=ffc0.01, $R=lru, $window=60, $variance=0.05, $mytime=600"
attr mytime 600
attr net bus
attr network networks.${net=bus}_network
attr processid 23817
attr rep 0
attr repetition 0
attr replication #0
attr resultdir results
attr runnumber 1
attr seedset 0
attr variance 0.05
attr window 60

scalar . 	a 	0.5
scalar . 	mytime 	600
scalar . 	rep 	0
scalar . 	variance 	0.05
scalar . 	window 	60
scalar bus_network.content_distribution 	repo-0 	9
scalar bus_network.content_distribution 	client-0 	5
scalar bus_network.content_distribution 	client-1 	8
scalar bus_network.content_distribution 	client-2 	9
scalar bus_network.content_distribution 	client-3 	0
scalar bus_network.content_distribution 	client-4 	1
scalar bus_network.content_distribution 	client-5 	7
scalar bus_network.content_distribution 	client-6 	6
scalar bus_network.content_distribution 	client-7 	2
scalar bus_network.content_distribution 	client-8 	4
scalar bus_network.content_distribution 	client-9 	3
scalar bus_network.content_distribution 	repo-0_card 	100000
scalar bus_network.content_distribution 	repo-0_price 	0
scalar bus_network.statistics 	stabilization_time 	3752.5
scalar bus_network.statistics 	p_hit 	0.0051016233349956
scalar bus_network.statistics 	interests 	65047.7
scalar bus_network.statistics 	data 	53046.2
scalar bus_network.statistics 	hdistance 	5.4016984752925
scalar bus_network.statistics 	avg_time 	0.008849952438
scalar bus_network.statistics 	downloads 	120006
scalar bus_network.statistics 	total_cost 	0
scalar bus_network.statistics 	total_replicas 	100000
scalar bus_network.statistics 	inner_hit 	0.023382164225122
scalar bus_network.node[0].core_layer 	interests[0] 	12119
scalar bus_network.node[0].core_layer 	data[0] 	11977
scalar bus_network.node[0].core_layer 	repo_int[0] 	117200
scalar bus_network.node[0].content_store 	p_hit[0] 	0.011634623318756
scalar bus_network.node[0].content_store 	hits[0] 	141
scalar bus_network.node[0].content_store 	misses[0] 	11978
scalar bus_network.node[0].content_store 	decision_yes[0] 	127
scalar bus_network.node[0].content_store 	decision_no[0] 	11850
scalar bus_network.node[0].content_store 	decision_ratio[0] 	0.010603657009268
scalar bus_network.node[1].core_layer 	interests[1] 	23919
scalar bus_network.node[1].core_layer 	data[1] 	23746
scalar bus_network.node[1].content_store 	p_hit[1] 	0.0071491283080396
scalar bus_network.node[1].content_store 	hits[1] 	171
scalar bus_network.node[1].content_store 	misses[1] 	23748
scalar bus_network.node[1].content_store 	decision_yes[1] 	237
scalar bus_network.node[1].content_store 	decision_no[1] 	23509
scalar bus_network.node[1].content_store 	decision_ratio[1] 	0.009980628316348
scalar bus_network.node[2].core_layer 	interests[2] 	35536
scalar bus_network.node[2].core_layer 	data[2] 	35353
scalar bus_network.node[2].content_store 	p_hit[2] 	0.005065285907249
scalar bus_network.node[2].content_store 	hits[2] 	180
scalar bus_network.node[2].content_store 	misses[2] 	35356
scalar bus_network.node[2].content_store 	decision_yes[2] 	350
scalar bus_network.node[2].content_store 	decision_no[2] 	35003
scalar bus_network.node[2].content_store 	decision_ratio[2] 	0.0099001499165559
scalar bus_network.node[3].core_layer 	interests[3] 	47386
scalar bus_network.node[3].core_layer 	data[3] 	47195
scalar bus_network.node[3].content_store 	p_hit[3] 	0.0039674165365298
scalar bus_network.node[3].content_store 	hits[3] 	188
scalar bus_network.node[3].content_store 	misses[3] 	47198
scalar bus_network.node[3].content_store 	decision_yes[3] 	470
scalar bus_network.node[3].content_store 	decision_no[3] 	46725
scalar bus_network.node[3].content_store 	decision_ratio[3] 	0.0099586820637779
scalar bus_network.node[4].core_layer 	interests[4] 	59236
scalar bus_network.node[4].core_layer 	data[4] 	59024
scalar bus_network.node[4].content_store 	p_hit[4] 	0.0035789047201026
scalar bus_network.node[4].content_store 	hits[4] 	212
scalar bus_network.node[4].content_store 	misses[4] 	59024
scalar bus_network.node[4].content_store 	decision_yes[4] 	580
scalar bus_network.node[4].content_store 	decision_no[4] 	58444
scalar bus_network.node[4].content_store 	decision_ratio[4] 	0.0098265112496612
scalar bus_network.node[5].core_layer 	interests[5] 	70930
scalar bus_network.node[5].core_layer 	data[5] 	70737
scalar bus_network.node[5].content_store 	p_hit[5] 	0.0027068941209643
scalar bus_network.node[5].content_store 	hits[5] 	192
scalar bus_network.node[5].content_store 	misses[5] 	70738
scalar bus_network.node[5].content_store 	decision_yes[5] 	768
scalar bus_network.node[5].content_store 	decision_no[5] 	69969
scalar bus_network.node[5].content_store 	decision_ratio[5] 	0.010857118622503
scalar bus_network.node[6].core_layer 	interests[6] 	82765
scalar bus_network.node[6].core_layer 	data[6] 	82471
scalar bus_network.node[6].content_store 	p_hit[6] 	0.0035522261825651
scalar bus_network.node[6].content_store 	hits[6] 	294
scalar bus_network.node[6].content_store 	misses[6] 	82471
scalar bus_network.node[6].content_store 	decision_yes[6] 	846
scalar bus_network.node[6].content_store 	decision_no[6] 	81625
scalar bus_network.node[6].content_store 	decision_ratio[6] 	0.010258151350172
scalar bus_network.node[7].core_layer 	interests[7] 	94613
scalar bus_network.node[7].core_layer 	data[7] 	94216
scalar bus_network.node[7].content_store 	p_hit[7] 	0.0041960407132212
scalar bus_network.node[7].content_store 	hits[7] 	397
scalar bus_network.node[7].content_store 	misses[7] 	94216
scalar bus_network.node[7].content_store 	decision_yes[7] 	922
scalar bus_network.node[7].content_store 	decision_no[7] 	93294
scalar bus_network.node[7].content_store 	decision_ratio[7] 	0.0097860236053324
scalar bus_network.node[8].core_layer 	interests[8] 	106197
scalar bus_network.node[8].core_layer 	data[8] 	105743
scalar bus_network.node[8].content_store 	p_hit[8] 	0.004275073683814
scalar bus_network.node[8].content_store 	hits[8] 	454
scalar bus_network.node[8].content_store 	misses[8] 	105743
scalar bus_network.node[8].content_store 	decision_yes[8] 	1091
scalar bus_network.node[8].content_store 	decision_no[8] 	104652
scalar bus_network.node[8].content_store 	decision_ratio[8] 	0.010317467822929
scalar bus_network.node[9].core_layer 	interests[9] 	117776
scalar bus_network.node[9].core_layer 	repo_load[9] 	117200
scalar bus_network.node[9].core_layer 	data[9] 	0
scalar bus_network.node[9].content_store 	p_hit[9] 	0.0048906398587148
scalar bus_network.node[9].content_store 	hits[9] 	576
scalar bus_network.node[9].content_store 	misses[9] 	117200
scalar bus_network.node[9].content_store 	decision_yes[9] 	1416
scalar bus_network.node[9].content_store 	decision_no[9] 	115784
scalar bus_network.node[9].content_store 	decision_ratio[9] 	0.012081911262799
scalar bus_network.client[0] 	hdistance[0] 	9.750288826539
scalar bus_network.client[0] 	downloads[0] 	12118
scalar bus_network.client[0] 	avg_time[0] 	0.017575009344
scalar bus_network.client[1] 	hdistance[1] 	8.7967336683416
scalar bus_network.client[1] 	downloads[1] 	11940
scalar bus_network.client[1] 	avg_time[1] 	0.015658493692
scalar bus_network.client[2] 	hdistance[2] 	7.8489989820156
scalar bus_network.client[2] 	downloads[2] 	11788
scalar bus_network.client[2] 	avg_time[2] 	0.013759074079
scalar bus_network.client[3] 	hdistance[3] 	6.8736492103076
scalar bus_network.client[3] 	downloads[3] 	12030
scalar bus_network.client[3] 	avg_time[3] 	0.011806637112
scalar bus_network.client[4] 	hdistance[4] 	5.9190199335548
scalar bus_network.client[4] 	downloads[4] 	12040
scalar bus_network.client[4] 	avg_time[4] 	0.009886541833
scalar bus_network.client[5] 	hdistance[5] 	4.9342348395767
scalar bus_network.client[5] 	downloads[5] 	11906
scalar bus_network.client[5] 	avg_time[5] 	0.007914790125
scalar bus_network.client[6] 	hdistance[6] 	3.9514466245427
scalar bus_network.client[6] 	downloads[6] 	12028
scalar bus_network.client[6] 	avg_time[6] 	0.005944792475
scalar bus_network.client[7] 	hdistance[7] 	2.968209520672
scalar bus_network.client[7] 	downloads[7] 	12142
scalar bus_network.client[7] 	avg_time[7] 	0.003967877054
scalar bus_network.client[8] 	hdistance[8] 	1.9806360070111
scalar bus_network.client[8] 	downloads[8] 	11981
scalar bus_network.client[8] 	avg_time[8] 	0.001986308667
scalar bus_network.client[9] 	hdistance[9] 	0.993767140364
scalar bus_network.client[9] 	downloads[9] 	12033
scalar bus_network.client[9] 	avg_time[9] 	0
