version 2
run General-19-20160823-20:49:23-9702
attr D fix0.05
attr F spr
attr R lru
attr a 0.9
attr configname General
attr datetime 20160823-20:49:23
attr experiment General
attr inifile hw5115/scenario_C/omnetp.ini
attr iterationvars "$net=dtelecom, $rep=3, $a=0.9, $F=spr, $D=fix0.05, $R=lru, $window=60, $variance=0.05, $mytime=600"
attr iterationvars2 "$net=dtelecom, $rep=3, $a=0.9, $F=spr, $D=fix0.05, $R=lru, $window=60, $variance=0.05, $mytime=600, $repetition=0"
attr measurement "$net=dtelecom, $rep=3, $a=0.9, $F=spr, $D=fix0.05, $R=lru, $window=60, $variance=0.05, $mytime=600"
attr mytime 600
attr net dtelecom
attr network networks.${net=dtelecom}_network
attr processid 9702
attr rep 3
attr repetition 0
attr replication #0
attr resultdir results
attr runnumber 19
attr seedset 3
attr variance 0.05
attr window 60

scalar . 	a 	0.9
scalar . 	mytime 	600
scalar . 	rep 	3
scalar . 	variance 	0.05
scalar . 	window 	60
scalar dtelecom_network.content_distribution 	repo-0 	9
scalar dtelecom_network.content_distribution 	repo-1 	15
scalar dtelecom_network.content_distribution 	repo-2 	64
scalar dtelecom_network.content_distribution 	repo-3 	28
scalar dtelecom_network.content_distribution 	repo-4 	29
scalar dtelecom_network.content_distribution 	repo-5 	8
scalar dtelecom_network.content_distribution 	repo-6 	0
scalar dtelecom_network.content_distribution 	repo-7 	40
scalar dtelecom_network.content_distribution 	repo-8 	36
scalar dtelecom_network.content_distribution 	repo-9 	16
scalar dtelecom_network.content_distribution 	repo-10 	11
scalar dtelecom_network.content_distribution 	repo-11 	54
scalar dtelecom_network.content_distribution 	repo-12 	62
scalar dtelecom_network.content_distribution 	repo-13 	33
scalar dtelecom_network.content_distribution 	repo-14 	49
scalar dtelecom_network.content_distribution 	repo-15 	51
scalar dtelecom_network.content_distribution 	client-0 	46
scalar dtelecom_network.content_distribution 	client-1 	30
scalar dtelecom_network.content_distribution 	client-2 	8
scalar dtelecom_network.content_distribution 	client-3 	49
scalar dtelecom_network.content_distribution 	client-4 	66
scalar dtelecom_network.content_distribution 	client-5 	58
scalar dtelecom_network.content_distribution 	client-6 	32
scalar dtelecom_network.content_distribution 	client-7 	40
scalar dtelecom_network.content_distribution 	client-8 	42
scalar dtelecom_network.content_distribution 	client-9 	45
scalar dtelecom_network.content_distribution 	client-10 	33
scalar dtelecom_network.content_distribution 	client-11 	28
scalar dtelecom_network.content_distribution 	client-12 	3
scalar dtelecom_network.content_distribution 	client-13 	57
scalar dtelecom_network.content_distribution 	client-14 	50
scalar dtelecom_network.content_distribution 	client-15 	17
scalar dtelecom_network.content_distribution 	client-16 	59
scalar dtelecom_network.content_distribution 	client-17 	48
scalar dtelecom_network.content_distribution 	client-18 	23
scalar dtelecom_network.content_distribution 	client-19 	22
scalar dtelecom_network.content_distribution 	client-20 	67
scalar dtelecom_network.content_distribution 	client-21 	62
scalar dtelecom_network.content_distribution 	client-22 	56
scalar dtelecom_network.content_distribution 	client-23 	55
scalar dtelecom_network.content_distribution 	client-24 	53
scalar dtelecom_network.content_distribution 	client-25 	36
scalar dtelecom_network.content_distribution 	client-26 	51
scalar dtelecom_network.content_distribution 	client-27 	37
scalar dtelecom_network.content_distribution 	client-28 	54
scalar dtelecom_network.content_distribution 	client-29 	4
scalar dtelecom_network.content_distribution 	client-30 	31
scalar dtelecom_network.content_distribution 	client-31 	9
scalar dtelecom_network.content_distribution 	repo-0_card 	6258
scalar dtelecom_network.content_distribution 	repo-0_price 	0
scalar dtelecom_network.content_distribution 	repo-1_card 	6296
scalar dtelecom_network.content_distribution 	repo-1_price 	0
scalar dtelecom_network.content_distribution 	repo-2_card 	6227
scalar dtelecom_network.content_distribution 	repo-2_price 	0
scalar dtelecom_network.content_distribution 	repo-3_card 	6343
scalar dtelecom_network.content_distribution 	repo-3_price 	0
scalar dtelecom_network.content_distribution 	repo-4_card 	6235
scalar dtelecom_network.content_distribution 	repo-4_price 	0
scalar dtelecom_network.content_distribution 	repo-5_card 	6253
scalar dtelecom_network.content_distribution 	repo-5_price 	0
scalar dtelecom_network.content_distribution 	repo-6_card 	6211
scalar dtelecom_network.content_distribution 	repo-6_price 	0
scalar dtelecom_network.content_distribution 	repo-7_card 	6205
scalar dtelecom_network.content_distribution 	repo-7_price 	0
scalar dtelecom_network.content_distribution 	repo-8_card 	6107
scalar dtelecom_network.content_distribution 	repo-8_price 	0
scalar dtelecom_network.content_distribution 	repo-9_card 	6255
scalar dtelecom_network.content_distribution 	repo-9_price 	0
scalar dtelecom_network.content_distribution 	repo-10_card 	6250
scalar dtelecom_network.content_distribution 	repo-10_price 	0
scalar dtelecom_network.content_distribution 	repo-11_card 	6303
scalar dtelecom_network.content_distribution 	repo-11_price 	0
scalar dtelecom_network.content_distribution 	repo-12_card 	6400
scalar dtelecom_network.content_distribution 	repo-12_price 	0
scalar dtelecom_network.content_distribution 	repo-13_card 	6213
scalar dtelecom_network.content_distribution 	repo-13_price 	0
scalar dtelecom_network.content_distribution 	repo-14_card 	6238
scalar dtelecom_network.content_distribution 	repo-14_price 	0
scalar dtelecom_network.content_distribution 	repo-15_card 	6206
scalar dtelecom_network.content_distribution 	repo-15_price 	0
scalar dtelecom_network.statistics 	stabilization_time 	22725.6
scalar dtelecom_network.statistics 	p_hit 	0.21909462212816
scalar dtelecom_network.statistics 	interests 	13825.25
scalar dtelecom_network.statistics 	data 	8196.3676470588
scalar dtelecom_network.statistics 	hdistance 	2.0163953435983
scalar dtelecom_network.statistics 	avg_time 	0.022513827076
scalar dtelecom_network.statistics 	downloads 	382703
scalar dtelecom_network.statistics 	total_cost 	0
scalar dtelecom_network.statistics 	total_replicas 	100000
scalar dtelecom_network.statistics 	inner_hit 	0.44085099933891
scalar dtelecom_network.node[0].core_layer 	interests[0] 	18344
scalar dtelecom_network.node[0].core_layer 	repo_load[0] 	12626
scalar dtelecom_network.node[0].core_layer 	data[0] 	0
scalar dtelecom_network.node[0].core_layer 	repo_int[0] 	213988
scalar dtelecom_network.node[0].content_store 	p_hit[0] 	0.3117095508068
scalar dtelecom_network.node[0].content_store 	hits[0] 	5718
scalar dtelecom_network.node[0].content_store 	misses[0] 	12626
scalar dtelecom_network.node[0].content_store 	decision_yes[0] 	628
scalar dtelecom_network.node[0].content_store 	decision_no[0] 	11998
scalar dtelecom_network.node[0].content_store 	decision_ratio[0] 	0.049738634563599
scalar dtelecom_network.node[1].core_layer 	interests[1] 	207379
scalar dtelecom_network.node[1].core_layer 	data[1] 	198002
scalar dtelecom_network.node[1].content_store 	p_hit[1] 	0.044864716292392
scalar dtelecom_network.node[1].content_store 	hits[1] 	9304
scalar dtelecom_network.node[1].content_store 	misses[1] 	198075
scalar dtelecom_network.node[1].content_store 	decision_yes[1] 	9978
scalar dtelecom_network.node[1].content_store 	decision_no[1] 	188024
scalar dtelecom_network.node[1].content_store 	decision_ratio[1] 	0.05039343036939
scalar dtelecom_network.node[2].core_layer 	interests[2] 	2465
scalar dtelecom_network.node[2].core_layer 	data[2] 	2080
scalar dtelecom_network.node[2].content_store 	p_hit[2] 	0.15618661257606
scalar dtelecom_network.node[2].content_store 	hits[2] 	385
scalar dtelecom_network.node[2].content_store 	misses[2] 	2080
scalar dtelecom_network.node[2].content_store 	decision_yes[2] 	89
scalar dtelecom_network.node[2].content_store 	decision_no[2] 	1991
scalar dtelecom_network.node[2].content_store 	decision_ratio[2] 	0.042788461538462
scalar dtelecom_network.node[3].core_layer 	interests[3] 	12004
scalar dtelecom_network.node[3].core_layer 	data[3] 	9188
scalar dtelecom_network.node[3].content_store 	p_hit[3] 	0.23442185938021
scalar dtelecom_network.node[3].content_store 	hits[3] 	2814
scalar dtelecom_network.node[3].content_store 	misses[3] 	9190
scalar dtelecom_network.node[3].content_store 	decision_yes[3] 	426
scalar dtelecom_network.node[3].content_store 	decision_no[3] 	8762
scalar dtelecom_network.node[3].content_store 	decision_ratio[3] 	0.046364823683065
scalar dtelecom_network.node[4].core_layer 	interests[4] 	48423
scalar dtelecom_network.node[4].core_layer 	data[4] 	41706
scalar dtelecom_network.node[4].content_store 	p_hit[4] 	0.1379096710241
scalar dtelecom_network.node[4].content_store 	hits[4] 	6678
scalar dtelecom_network.node[4].content_store 	misses[4] 	41745
scalar dtelecom_network.node[4].content_store 	decision_yes[4] 	2131
scalar dtelecom_network.node[4].content_store 	decision_no[4] 	39575
scalar dtelecom_network.node[4].content_store 	decision_ratio[4] 	0.051095765597276
scalar dtelecom_network.node[5].core_layer 	interests[5] 	0
scalar dtelecom_network.node[5].core_layer 	data[5] 	0
scalar dtelecom_network.node[5].content_store 	p_hit[5] 	-nan
scalar dtelecom_network.node[5].content_store 	hits[5] 	0
scalar dtelecom_network.node[5].content_store 	misses[5] 	0
scalar dtelecom_network.node[5].content_store 	decision_yes[5] 	0
scalar dtelecom_network.node[5].content_store 	decision_no[5] 	0
scalar dtelecom_network.node[5].content_store 	decision_ratio[5] 	0
scalar dtelecom_network.node[6].core_layer 	interests[6] 	0
scalar dtelecom_network.node[6].core_layer 	data[6] 	0
scalar dtelecom_network.node[6].content_store 	p_hit[6] 	-nan
scalar dtelecom_network.node[6].content_store 	hits[6] 	0
scalar dtelecom_network.node[6].content_store 	misses[6] 	0
scalar dtelecom_network.node[6].content_store 	decision_yes[6] 	0
scalar dtelecom_network.node[6].content_store 	decision_no[6] 	0
scalar dtelecom_network.node[6].content_store 	decision_ratio[6] 	0
scalar dtelecom_network.node[7].core_layer 	interests[7] 	0
scalar dtelecom_network.node[7].core_layer 	data[7] 	0
scalar dtelecom_network.node[7].content_store 	p_hit[7] 	-nan
scalar dtelecom_network.node[7].content_store 	hits[7] 	0
scalar dtelecom_network.node[7].content_store 	misses[7] 	0
scalar dtelecom_network.node[7].content_store 	decision_yes[7] 	0
scalar dtelecom_network.node[7].content_store 	decision_no[7] 	0
scalar dtelecom_network.node[7].content_store 	decision_ratio[7] 	0
scalar dtelecom_network.node[8].core_layer 	interests[8] 	29153
scalar dtelecom_network.node[8].core_layer 	repo_load[8] 	13486
scalar dtelecom_network.node[8].core_layer 	data[8] 	9618
scalar dtelecom_network.node[8].content_store 	p_hit[8] 	0.20745720852056
scalar dtelecom_network.node[8].content_store 	hits[8] 	6048
scalar dtelecom_network.node[8].content_store 	misses[8] 	23105
scalar dtelecom_network.node[8].content_store 	decision_yes[8] 	1084
scalar dtelecom_network.node[8].content_store 	decision_no[8] 	22020
scalar dtelecom_network.node[8].content_store 	decision_ratio[8] 	0.046918282548476
scalar dtelecom_network.node[9].core_layer 	interests[9] 	32607
scalar dtelecom_network.node[9].core_layer 	repo_load[9] 	14217
scalar dtelecom_network.node[9].core_layer 	data[9] 	10781
scalar dtelecom_network.node[9].content_store 	p_hit[9] 	0.23332413285491
scalar dtelecom_network.node[9].content_store 	hits[9] 	7608
scalar dtelecom_network.node[9].content_store 	misses[9] 	24999
scalar dtelecom_network.node[9].content_store 	decision_yes[9] 	1300
scalar dtelecom_network.node[9].content_store 	decision_no[9] 	23698
scalar dtelecom_network.node[9].content_store 	decision_ratio[9] 	0.052004160332827
scalar dtelecom_network.node[10].core_layer 	interests[10] 	0
scalar dtelecom_network.node[10].core_layer 	data[10] 	0
scalar dtelecom_network.node[10].content_store 	p_hit[10] 	-nan
scalar dtelecom_network.node[10].content_store 	hits[10] 	0
scalar dtelecom_network.node[10].content_store 	misses[10] 	0
scalar dtelecom_network.node[10].content_store 	decision_yes[10] 	0
scalar dtelecom_network.node[10].content_store 	decision_no[10] 	0
scalar dtelecom_network.node[10].content_store 	decision_ratio[10] 	0
scalar dtelecom_network.node[11].core_layer 	interests[11] 	17724
scalar dtelecom_network.node[11].core_layer 	repo_load[11] 	12625
scalar dtelecom_network.node[11].core_layer 	data[11] 	0
scalar dtelecom_network.node[11].content_store 	p_hit[11] 	0.28768900925299
scalar dtelecom_network.node[11].content_store 	hits[11] 	5099
scalar dtelecom_network.node[11].content_store 	misses[11] 	12625
scalar dtelecom_network.node[11].content_store 	decision_yes[11] 	624
scalar dtelecom_network.node[11].content_store 	decision_no[11] 	12001
scalar dtelecom_network.node[11].content_store 	decision_ratio[11] 	0.049425742574257
scalar dtelecom_network.node[12].core_layer 	interests[12] 	0
scalar dtelecom_network.node[12].core_layer 	data[12] 	0
scalar dtelecom_network.node[12].content_store 	p_hit[12] 	-nan
scalar dtelecom_network.node[12].content_store 	hits[12] 	0
scalar dtelecom_network.node[12].content_store 	misses[12] 	0
scalar dtelecom_network.node[12].content_store 	decision_yes[12] 	0
scalar dtelecom_network.node[12].content_store 	decision_no[12] 	0
scalar dtelecom_network.node[12].content_store 	decision_ratio[12] 	0
scalar dtelecom_network.node[13].core_layer 	interests[13] 	0
scalar dtelecom_network.node[13].core_layer 	data[13] 	0
scalar dtelecom_network.node[13].content_store 	p_hit[13] 	-nan
scalar dtelecom_network.node[13].content_store 	hits[13] 	0
scalar dtelecom_network.node[13].content_store 	misses[13] 	0
scalar dtelecom_network.node[13].content_store 	decision_yes[13] 	0
scalar dtelecom_network.node[13].content_store 	decision_no[13] 	0
scalar dtelecom_network.node[13].content_store 	decision_ratio[13] 	0
scalar dtelecom_network.node[14].core_layer 	interests[14] 	0
scalar dtelecom_network.node[14].core_layer 	data[14] 	0
scalar dtelecom_network.node[14].content_store 	p_hit[14] 	-nan
scalar dtelecom_network.node[14].content_store 	hits[14] 	0
scalar dtelecom_network.node[14].content_store 	misses[14] 	0
scalar dtelecom_network.node[14].content_store 	decision_yes[14] 	0
scalar dtelecom_network.node[14].content_store 	decision_no[14] 	0
scalar dtelecom_network.node[14].content_store 	decision_ratio[14] 	0
scalar dtelecom_network.node[15].core_layer 	interests[15] 	18386
scalar dtelecom_network.node[15].core_layer 	repo_load[15] 	12882
scalar dtelecom_network.node[15].core_layer 	data[15] 	0
scalar dtelecom_network.node[15].content_store 	p_hit[15] 	0.29935820733167
scalar dtelecom_network.node[15].content_store 	hits[15] 	5504
scalar dtelecom_network.node[15].content_store 	misses[15] 	12882
scalar dtelecom_network.node[15].content_store 	decision_yes[15] 	660
scalar dtelecom_network.node[15].content_store 	decision_no[15] 	12222
scalar dtelecom_network.node[15].content_store 	decision_ratio[15] 	0.051234280391244
scalar dtelecom_network.node[16].core_layer 	interests[16] 	20097
scalar dtelecom_network.node[16].core_layer 	repo_load[16] 	13646
scalar dtelecom_network.node[16].core_layer 	data[16] 	0
scalar dtelecom_network.node[16].content_store 	p_hit[16] 	0.32099318306215
scalar dtelecom_network.node[16].content_store 	hits[16] 	6451
scalar dtelecom_network.node[16].content_store 	misses[16] 	13646
scalar dtelecom_network.node[16].content_store 	decision_yes[16] 	709
scalar dtelecom_network.node[16].content_store 	decision_no[16] 	12937
scalar dtelecom_network.node[16].content_store 	decision_ratio[16] 	0.051956617323758
scalar dtelecom_network.node[17].core_layer 	interests[17] 	11897
scalar dtelecom_network.node[17].core_layer 	data[17] 	9249
scalar dtelecom_network.node[17].content_store 	p_hit[17] 	0.22249306547869
scalar dtelecom_network.node[17].content_store 	hits[17] 	2647
scalar dtelecom_network.node[17].content_store 	misses[17] 	9250
scalar dtelecom_network.node[17].content_store 	decision_yes[17] 	446
scalar dtelecom_network.node[17].content_store 	decision_no[17] 	8803
scalar dtelecom_network.node[17].content_store 	decision_ratio[17] 	0.048221429343713
scalar dtelecom_network.node[18].core_layer 	interests[18] 	0
scalar dtelecom_network.node[18].core_layer 	data[18] 	0
scalar dtelecom_network.node[18].content_store 	p_hit[18] 	-nan
scalar dtelecom_network.node[18].content_store 	hits[18] 	0
scalar dtelecom_network.node[18].content_store 	misses[18] 	0
scalar dtelecom_network.node[18].content_store 	decision_yes[18] 	0
scalar dtelecom_network.node[18].content_store 	decision_no[18] 	0
scalar dtelecom_network.node[18].content_store 	decision_ratio[18] 	0
scalar dtelecom_network.node[19].core_layer 	interests[19] 	0
scalar dtelecom_network.node[19].core_layer 	data[19] 	0
scalar dtelecom_network.node[19].content_store 	p_hit[19] 	-nan
scalar dtelecom_network.node[19].content_store 	hits[19] 	0
scalar dtelecom_network.node[19].content_store 	misses[19] 	0
scalar dtelecom_network.node[19].content_store 	decision_yes[19] 	0
scalar dtelecom_network.node[19].content_store 	decision_no[19] 	0
scalar dtelecom_network.node[19].content_store 	decision_ratio[19] 	0
scalar dtelecom_network.node[20].core_layer 	interests[20] 	0
scalar dtelecom_network.node[20].core_layer 	data[20] 	0
scalar dtelecom_network.node[20].content_store 	p_hit[20] 	-nan
scalar dtelecom_network.node[20].content_store 	hits[20] 	0
scalar dtelecom_network.node[20].content_store 	misses[20] 	0
scalar dtelecom_network.node[20].content_store 	decision_yes[20] 	0
scalar dtelecom_network.node[20].content_store 	decision_no[20] 	0
scalar dtelecom_network.node[20].content_store 	decision_ratio[20] 	0
scalar dtelecom_network.node[21].core_layer 	interests[21] 	0
scalar dtelecom_network.node[21].core_layer 	data[21] 	0
scalar dtelecom_network.node[21].content_store 	p_hit[21] 	-nan
scalar dtelecom_network.node[21].content_store 	hits[21] 	0
scalar dtelecom_network.node[21].content_store 	misses[21] 	0
scalar dtelecom_network.node[21].content_store 	decision_yes[21] 	0
scalar dtelecom_network.node[21].content_store 	decision_no[21] 	0
scalar dtelecom_network.node[21].content_store 	decision_ratio[21] 	0
scalar dtelecom_network.node[22].core_layer 	interests[22] 	11960
scalar dtelecom_network.node[22].core_layer 	data[22] 	9227
scalar dtelecom_network.node[22].content_store 	p_hit[22] 	0.22817725752508
scalar dtelecom_network.node[22].content_store 	hits[22] 	2729
scalar dtelecom_network.node[22].content_store 	misses[22] 	9231
scalar dtelecom_network.node[22].content_store 	decision_yes[22] 	445
scalar dtelecom_network.node[22].content_store 	decision_no[22] 	8782
scalar dtelecom_network.node[22].content_store 	decision_ratio[22] 	0.048228026444131
scalar dtelecom_network.node[23].core_layer 	interests[23] 	40923
scalar dtelecom_network.node[23].core_layer 	data[23] 	33435
scalar dtelecom_network.node[23].content_store 	p_hit[23] 	0.1825868093737
scalar dtelecom_network.node[23].content_store 	hits[23] 	7472
scalar dtelecom_network.node[23].content_store 	misses[23] 	33451
scalar dtelecom_network.node[23].content_store 	decision_yes[23] 	1675
scalar dtelecom_network.node[23].content_store 	decision_no[23] 	31760
scalar dtelecom_network.node[23].content_store 	decision_ratio[23] 	0.050097203529236
scalar dtelecom_network.node[24].core_layer 	interests[24] 	0
scalar dtelecom_network.node[24].core_layer 	data[24] 	0
scalar dtelecom_network.node[24].content_store 	p_hit[24] 	-nan
scalar dtelecom_network.node[24].content_store 	hits[24] 	0
scalar dtelecom_network.node[24].content_store 	misses[24] 	0
scalar dtelecom_network.node[24].content_store 	decision_yes[24] 	0
scalar dtelecom_network.node[24].content_store 	decision_no[24] 	0
scalar dtelecom_network.node[24].content_store 	decision_ratio[24] 	0
scalar dtelecom_network.node[25].core_layer 	interests[25] 	0
scalar dtelecom_network.node[25].core_layer 	data[25] 	0
scalar dtelecom_network.node[25].content_store 	p_hit[25] 	-nan
scalar dtelecom_network.node[25].content_store 	hits[25] 	0
scalar dtelecom_network.node[25].content_store 	misses[25] 	0
scalar dtelecom_network.node[25].content_store 	decision_yes[25] 	0
scalar dtelecom_network.node[25].content_store 	decision_no[25] 	0
scalar dtelecom_network.node[25].content_store 	decision_ratio[25] 	0
scalar dtelecom_network.node[26].core_layer 	interests[26] 	535
scalar dtelecom_network.node[26].core_layer 	data[26] 	395
scalar dtelecom_network.node[26].content_store 	p_hit[26] 	0.26168224299065
scalar dtelecom_network.node[26].content_store 	hits[26] 	140
scalar dtelecom_network.node[26].content_store 	misses[26] 	395
scalar dtelecom_network.node[26].content_store 	decision_yes[26] 	17
scalar dtelecom_network.node[26].content_store 	decision_no[26] 	378
scalar dtelecom_network.node[26].content_store 	decision_ratio[26] 	0.043037974683544
scalar dtelecom_network.node[27].core_layer 	interests[27] 	0
scalar dtelecom_network.node[27].core_layer 	data[27] 	0
scalar dtelecom_network.node[27].content_store 	p_hit[27] 	-nan
scalar dtelecom_network.node[27].content_store 	hits[27] 	0
scalar dtelecom_network.node[27].content_store 	misses[27] 	0
scalar dtelecom_network.node[27].content_store 	decision_yes[27] 	0
scalar dtelecom_network.node[27].content_store 	decision_no[27] 	0
scalar dtelecom_network.node[27].content_store 	decision_ratio[27] 	0
scalar dtelecom_network.node[28].core_layer 	interests[28] 	28635
scalar dtelecom_network.node[28].core_layer 	repo_load[28] 	14068
scalar dtelecom_network.node[28].core_layer 	data[28] 	9424
scalar dtelecom_network.node[28].content_store 	p_hit[28] 	0.17957045573599
scalar dtelecom_network.node[28].content_store 	hits[28] 	5142
scalar dtelecom_network.node[28].content_store 	misses[28] 	23493
scalar dtelecom_network.node[28].content_store 	decision_yes[28] 	1170
scalar dtelecom_network.node[28].content_store 	decision_no[28] 	22322
scalar dtelecom_network.node[28].content_store 	decision_ratio[28] 	0.049804188659969
scalar dtelecom_network.node[29].core_layer 	interests[29] 	16716
scalar dtelecom_network.node[29].core_layer 	repo_load[29] 	12386
scalar dtelecom_network.node[29].core_layer 	data[29] 	0
scalar dtelecom_network.node[29].content_store 	p_hit[29] 	0.25903326154582
scalar dtelecom_network.node[29].content_store 	hits[29] 	4330
scalar dtelecom_network.node[29].content_store 	misses[29] 	12386
scalar dtelecom_network.node[29].content_store 	decision_yes[29] 	596
scalar dtelecom_network.node[29].content_store 	decision_no[29] 	11790
scalar dtelecom_network.node[29].content_store 	decision_ratio[29] 	0.048118843855966
scalar dtelecom_network.node[30].core_layer 	interests[30] 	11917
scalar dtelecom_network.node[30].core_layer 	data[30] 	9277
scalar dtelecom_network.node[30].content_store 	p_hit[30] 	0.2213644373584
scalar dtelecom_network.node[30].content_store 	hits[30] 	2638
scalar dtelecom_network.node[30].content_store 	misses[30] 	9279
scalar dtelecom_network.node[30].content_store 	decision_yes[30] 	441
scalar dtelecom_network.node[30].content_store 	decision_no[30] 	8836
scalar dtelecom_network.node[30].content_store 	decision_ratio[30] 	0.047536919262693
scalar dtelecom_network.node[31].core_layer 	interests[31] 	11905
scalar dtelecom_network.node[31].core_layer 	data[31] 	9218
scalar dtelecom_network.node[31].content_store 	p_hit[31] 	0.22545149097018
scalar dtelecom_network.node[31].content_store 	hits[31] 	2684
scalar dtelecom_network.node[31].content_store 	misses[31] 	9221
scalar dtelecom_network.node[31].content_store 	decision_yes[31] 	464
scalar dtelecom_network.node[31].content_store 	decision_no[31] 	8754
scalar dtelecom_network.node[31].content_store 	decision_ratio[31] 	0.050336298546322
scalar dtelecom_network.node[32].core_layer 	interests[32] 	11977
scalar dtelecom_network.node[32].core_layer 	data[32] 	9235
scalar dtelecom_network.node[32].content_store 	p_hit[32] 	0.22893879936545
scalar dtelecom_network.node[32].content_store 	hits[32] 	2742
scalar dtelecom_network.node[32].content_store 	misses[32] 	9235
scalar dtelecom_network.node[32].content_store 	decision_yes[32] 	444
scalar dtelecom_network.node[32].content_store 	decision_no[32] 	8791
scalar dtelecom_network.node[32].content_store 	decision_ratio[32] 	0.048077964266378
scalar dtelecom_network.node[33].core_layer 	interests[33] 	29428
scalar dtelecom_network.node[33].core_layer 	repo_load[33] 	13066
scalar dtelecom_network.node[33].core_layer 	data[33] 	9522
scalar dtelecom_network.node[33].content_store 	p_hit[33] 	0.23243169770287
scalar dtelecom_network.node[33].content_store 	hits[33] 	6840
scalar dtelecom_network.node[33].content_store 	misses[33] 	22588
scalar dtelecom_network.node[33].content_store 	decision_yes[33] 	1169
scalar dtelecom_network.node[33].content_store 	decision_no[33] 	21419
scalar dtelecom_network.node[33].content_store 	decision_ratio[33] 	0.051753143261909
scalar dtelecom_network.node[34].core_layer 	interests[34] 	0
scalar dtelecom_network.node[34].core_layer 	data[34] 	0
scalar dtelecom_network.node[34].content_store 	p_hit[34] 	-nan
scalar dtelecom_network.node[34].content_store 	hits[34] 	0
scalar dtelecom_network.node[34].content_store 	misses[34] 	0
scalar dtelecom_network.node[34].content_store 	decision_yes[34] 	0
scalar dtelecom_network.node[34].content_store 	decision_no[34] 	0
scalar dtelecom_network.node[34].content_store 	decision_ratio[34] 	0
scalar dtelecom_network.node[35].core_layer 	interests[35] 	0
scalar dtelecom_network.node[35].core_layer 	data[35] 	0
scalar dtelecom_network.node[35].content_store 	p_hit[35] 	-nan
scalar dtelecom_network.node[35].content_store 	hits[35] 	0
scalar dtelecom_network.node[35].content_store 	misses[35] 	0
scalar dtelecom_network.node[35].content_store 	decision_yes[35] 	0
scalar dtelecom_network.node[35].content_store 	decision_no[35] 	0
scalar dtelecom_network.node[35].content_store 	decision_ratio[35] 	0
scalar dtelecom_network.node[36].core_layer 	interests[36] 	29282
scalar dtelecom_network.node[36].core_layer 	repo_load[36] 	13081
scalar dtelecom_network.node[36].core_layer 	data[36] 	9453
scalar dtelecom_network.node[36].content_store 	p_hit[36] 	0.23041458916741
scalar dtelecom_network.node[36].content_store 	hits[36] 	6747
scalar dtelecom_network.node[36].content_store 	misses[36] 	22535
scalar dtelecom_network.node[36].content_store 	decision_yes[36] 	1170
scalar dtelecom_network.node[36].content_store 	decision_no[36] 	21364
scalar dtelecom_network.node[36].content_store 	decision_ratio[36] 	0.051921540782817
scalar dtelecom_network.node[37].core_layer 	interests[37] 	11846
scalar dtelecom_network.node[37].core_layer 	data[37] 	9135
scalar dtelecom_network.node[37].content_store 	p_hit[37] 	0.2288536214756
scalar dtelecom_network.node[37].content_store 	hits[37] 	2711
scalar dtelecom_network.node[37].content_store 	misses[37] 	9135
scalar dtelecom_network.node[37].content_store 	decision_yes[37] 	450
scalar dtelecom_network.node[37].content_store 	decision_no[37] 	8685
scalar dtelecom_network.node[37].content_store 	decision_ratio[37] 	0.049261083743842
scalar dtelecom_network.node[38].core_layer 	interests[38] 	0
scalar dtelecom_network.node[38].core_layer 	data[38] 	0
scalar dtelecom_network.node[38].content_store 	p_hit[38] 	-nan
scalar dtelecom_network.node[38].content_store 	hits[38] 	0
scalar dtelecom_network.node[38].content_store 	misses[38] 	0
scalar dtelecom_network.node[38].content_store 	decision_yes[38] 	0
scalar dtelecom_network.node[38].content_store 	decision_no[38] 	0
scalar dtelecom_network.node[38].content_store 	decision_ratio[38] 	0
scalar dtelecom_network.node[39].core_layer 	interests[39] 	0
scalar dtelecom_network.node[39].core_layer 	data[39] 	0
scalar dtelecom_network.node[39].content_store 	p_hit[39] 	-nan
scalar dtelecom_network.node[39].content_store 	hits[39] 	0
scalar dtelecom_network.node[39].content_store 	misses[39] 	0
scalar dtelecom_network.node[39].content_store 	decision_yes[39] 	0
scalar dtelecom_network.node[39].content_store 	decision_no[39] 	0
scalar dtelecom_network.node[39].content_store 	decision_ratio[39] 	0
scalar dtelecom_network.node[40].core_layer 	interests[40] 	31027
scalar dtelecom_network.node[40].core_layer 	repo_load[40] 	14561
scalar dtelecom_network.node[40].core_layer 	data[40] 	10219
scalar dtelecom_network.node[40].content_store 	p_hit[40] 	0.20134076771844
scalar dtelecom_network.node[40].content_store 	hits[40] 	6247
scalar dtelecom_network.node[40].content_store 	misses[40] 	24780
scalar dtelecom_network.node[40].content_store 	decision_yes[40] 	1259
scalar dtelecom_network.node[40].content_store 	decision_no[40] 	23521
scalar dtelecom_network.node[40].content_store 	decision_ratio[40] 	0.050807102502018
scalar dtelecom_network.node[41].core_layer 	interests[41] 	0
scalar dtelecom_network.node[41].core_layer 	data[41] 	0
scalar dtelecom_network.node[41].content_store 	p_hit[41] 	-nan
scalar dtelecom_network.node[41].content_store 	hits[41] 	0
scalar dtelecom_network.node[41].content_store 	misses[41] 	0
scalar dtelecom_network.node[41].content_store 	decision_yes[41] 	0
scalar dtelecom_network.node[41].content_store 	decision_no[41] 	0
scalar dtelecom_network.node[41].content_store 	decision_ratio[41] 	0
scalar dtelecom_network.node[42].core_layer 	interests[42] 	11991
scalar dtelecom_network.node[42].core_layer 	data[42] 	9439
scalar dtelecom_network.node[42].content_store 	p_hit[42] 	0.21282628638145
scalar dtelecom_network.node[42].content_store 	hits[42] 	2552
scalar dtelecom_network.node[42].content_store 	misses[42] 	9439
scalar dtelecom_network.node[42].content_store 	decision_yes[42] 	461
scalar dtelecom_network.node[42].content_store 	decision_no[42] 	8978
scalar dtelecom_network.node[42].content_store 	decision_ratio[42] 	0.048839919482996
scalar dtelecom_network.node[43].core_layer 	interests[43] 	0
scalar dtelecom_network.node[43].core_layer 	data[43] 	0
scalar dtelecom_network.node[43].content_store 	p_hit[43] 	-nan
scalar dtelecom_network.node[43].content_store 	hits[43] 	0
scalar dtelecom_network.node[43].content_store 	misses[43] 	0
scalar dtelecom_network.node[43].content_store 	decision_yes[43] 	0
scalar dtelecom_network.node[43].content_store 	decision_no[43] 	0
scalar dtelecom_network.node[43].content_store 	decision_ratio[43] 	0
scalar dtelecom_network.node[44].core_layer 	interests[44] 	0
scalar dtelecom_network.node[44].core_layer 	data[44] 	0
scalar dtelecom_network.node[44].content_store 	p_hit[44] 	-nan
scalar dtelecom_network.node[44].content_store 	hits[44] 	0
scalar dtelecom_network.node[44].content_store 	misses[44] 	0
scalar dtelecom_network.node[44].content_store 	decision_yes[44] 	0
scalar dtelecom_network.node[44].content_store 	decision_no[44] 	0
scalar dtelecom_network.node[44].content_store 	decision_ratio[44] 	0
scalar dtelecom_network.node[45].core_layer 	interests[45] 	11964
scalar dtelecom_network.node[45].core_layer 	data[45] 	9250
scalar dtelecom_network.node[45].content_store 	p_hit[45] 	0.22684720829154
scalar dtelecom_network.node[45].content_store 	hits[45] 	2714
scalar dtelecom_network.node[45].content_store 	misses[45] 	9250
scalar dtelecom_network.node[45].content_store 	decision_yes[45] 	464
scalar dtelecom_network.node[45].content_store 	decision_no[45] 	8786
scalar dtelecom_network.node[45].content_store 	decision_ratio[45] 	0.050162162162162
scalar dtelecom_network.node[46].core_layer 	interests[46] 	12030
scalar dtelecom_network.node[46].core_layer 	data[46] 	9317
scalar dtelecom_network.node[46].content_store 	p_hit[46] 	0.22551953449709
scalar dtelecom_network.node[46].content_store 	hits[46] 	2713
scalar dtelecom_network.node[46].content_store 	misses[46] 	9317
scalar dtelecom_network.node[46].content_store 	decision_yes[46] 	487
scalar dtelecom_network.node[46].content_store 	decision_no[46] 	8830
scalar dtelecom_network.node[46].content_store 	decision_ratio[46] 	0.052270044005581
scalar dtelecom_network.node[47].core_layer 	interests[47] 	0
scalar dtelecom_network.node[47].core_layer 	data[47] 	0
scalar dtelecom_network.node[47].content_store 	p_hit[47] 	-nan
scalar dtelecom_network.node[47].content_store 	hits[47] 	0
scalar dtelecom_network.node[47].content_store 	misses[47] 	0
scalar dtelecom_network.node[47].content_store 	decision_yes[47] 	0
scalar dtelecom_network.node[47].content_store 	decision_no[47] 	0
scalar dtelecom_network.node[47].content_store 	decision_ratio[47] 	0
scalar dtelecom_network.node[48].core_layer 	interests[48] 	11969
scalar dtelecom_network.node[48].core_layer 	data[48] 	9193
scalar dtelecom_network.node[48].content_store 	p_hit[48] 	0.2319324922717
scalar dtelecom_network.node[48].content_store 	hits[48] 	2776
scalar dtelecom_network.node[48].content_store 	misses[48] 	9193
scalar dtelecom_network.node[48].content_store 	decision_yes[48] 	474
scalar dtelecom_network.node[48].content_store 	decision_no[48] 	8719
scalar dtelecom_network.node[48].content_store 	decision_ratio[48] 	0.051560970303492
scalar dtelecom_network.node[49].core_layer 	interests[49] 	30237
scalar dtelecom_network.node[49].core_layer 	repo_load[49] 	13719
scalar dtelecom_network.node[49].core_layer 	data[49] 	9401
scalar dtelecom_network.node[49].content_store 	p_hit[49] 	0.23540695174786
scalar dtelecom_network.node[49].content_store 	hits[49] 	7118
scalar dtelecom_network.node[49].content_store 	misses[49] 	23119
scalar dtelecom_network.node[49].content_store 	decision_yes[49] 	1130
scalar dtelecom_network.node[49].content_store 	decision_no[49] 	21990
scalar dtelecom_network.node[49].content_store 	decision_ratio[49] 	0.048875432525952
scalar dtelecom_network.node[50].core_layer 	interests[50] 	11948
scalar dtelecom_network.node[50].core_layer 	data[50] 	9202
scalar dtelecom_network.node[50].content_store 	p_hit[50] 	0.22982926012722
scalar dtelecom_network.node[50].content_store 	hits[50] 	2746
scalar dtelecom_network.node[50].content_store 	misses[50] 	9202
scalar dtelecom_network.node[50].content_store 	decision_yes[50] 	459
scalar dtelecom_network.node[50].content_store 	decision_no[50] 	8743
scalar dtelecom_network.node[50].content_store 	decision_ratio[50] 	0.049880460769398
scalar dtelecom_network.node[51].core_layer 	interests[51] 	29074
scalar dtelecom_network.node[51].core_layer 	repo_load[51] 	13524
scalar dtelecom_network.node[51].core_layer 	data[51] 	9550
scalar dtelecom_network.node[51].content_store 	p_hit[51] 	0.20633555754282
scalar dtelecom_network.node[51].content_store 	hits[51] 	5999
scalar dtelecom_network.node[51].content_store 	misses[51] 	23075
scalar dtelecom_network.node[51].content_store 	decision_yes[51] 	1235
scalar dtelecom_network.node[51].content_store 	decision_no[51] 	21839
scalar dtelecom_network.node[51].content_store 	decision_ratio[51] 	0.053523446303198
scalar dtelecom_network.node[52].core_layer 	interests[52] 	0
scalar dtelecom_network.node[52].core_layer 	data[52] 	0
scalar dtelecom_network.node[52].content_store 	p_hit[52] 	-nan
scalar dtelecom_network.node[52].content_store 	hits[52] 	0
scalar dtelecom_network.node[52].content_store 	misses[52] 	0
scalar dtelecom_network.node[52].content_store 	decision_yes[52] 	0
scalar dtelecom_network.node[52].content_store 	decision_no[52] 	0
scalar dtelecom_network.node[52].content_store 	decision_ratio[52] 	0
scalar dtelecom_network.node[53].core_layer 	interests[53] 	11918
scalar dtelecom_network.node[53].core_layer 	data[53] 	9142
scalar dtelecom_network.node[53].content_store 	p_hit[53] 	0.23300889410975
scalar dtelecom_network.node[53].content_store 	hits[53] 	2777
scalar dtelecom_network.node[53].content_store 	misses[53] 	9141
scalar dtelecom_network.node[53].content_store 	decision_yes[53] 	454
scalar dtelecom_network.node[53].content_store 	decision_no[53] 	8688
scalar dtelecom_network.node[53].content_store 	decision_ratio[53] 	0.04966090570991
scalar dtelecom_network.node[54].core_layer 	interests[54] 	29527
scalar dtelecom_network.node[54].core_layer 	repo_load[54] 	13391
scalar dtelecom_network.node[54].core_layer 	data[54] 	9550
scalar dtelecom_network.node[54].content_store 	p_hit[54] 	0.22308395705625
scalar dtelecom_network.node[54].content_store 	hits[54] 	6587
scalar dtelecom_network.node[54].content_store 	misses[54] 	22940
scalar dtelecom_network.node[54].content_store 	decision_yes[54] 	1152
scalar dtelecom_network.node[54].content_store 	decision_no[54] 	21789
scalar dtelecom_network.node[54].content_store 	decision_ratio[54] 	0.050215770890545
scalar dtelecom_network.node[55].core_layer 	interests[55] 	12063
scalar dtelecom_network.node[55].core_layer 	data[55] 	9339
scalar dtelecom_network.node[55].content_store 	p_hit[55] 	0.22564867777501
scalar dtelecom_network.node[55].content_store 	hits[55] 	2722
scalar dtelecom_network.node[55].content_store 	misses[55] 	9341
scalar dtelecom_network.node[55].content_store 	decision_yes[55] 	521
scalar dtelecom_network.node[55].content_store 	decision_no[55] 	8818
scalar dtelecom_network.node[55].content_store 	decision_ratio[55] 	0.055787557554342
scalar dtelecom_network.node[56].core_layer 	interests[56] 	11956
scalar dtelecom_network.node[56].core_layer 	data[56] 	9273
scalar dtelecom_network.node[56].content_store 	p_hit[56] 	0.22440615590498
scalar dtelecom_network.node[56].content_store 	hits[56] 	2683
scalar dtelecom_network.node[56].content_store 	misses[56] 	9273
scalar dtelecom_network.node[56].content_store 	decision_yes[56] 	444
scalar dtelecom_network.node[56].content_store 	decision_no[56] 	8829
scalar dtelecom_network.node[56].content_store 	decision_ratio[56] 	0.047880944678098
scalar dtelecom_network.node[57].core_layer 	interests[57] 	11806
scalar dtelecom_network.node[57].core_layer 	data[57] 	9119
scalar dtelecom_network.node[57].content_store 	p_hit[57] 	0.22751143486363
scalar dtelecom_network.node[57].content_store 	hits[57] 	2686
scalar dtelecom_network.node[57].content_store 	misses[57] 	9120
scalar dtelecom_network.node[57].content_store 	decision_yes[57] 	417
scalar dtelecom_network.node[57].content_store 	decision_no[57] 	8702
scalar dtelecom_network.node[57].content_store 	decision_ratio[57] 	0.045728698322184
scalar dtelecom_network.node[58].core_layer 	interests[58] 	11942
scalar dtelecom_network.node[58].core_layer 	data[58] 	9176
scalar dtelecom_network.node[58].content_store 	p_hit[58] 	0.23153575615475
scalar dtelecom_network.node[58].content_store 	hits[58] 	2765
scalar dtelecom_network.node[58].content_store 	misses[58] 	9177
scalar dtelecom_network.node[58].content_store 	decision_yes[58] 	471
scalar dtelecom_network.node[58].content_store 	decision_no[58] 	8705
scalar dtelecom_network.node[58].content_store 	decision_ratio[58] 	0.051329555361813
scalar dtelecom_network.node[59].core_layer 	interests[59] 	12079
scalar dtelecom_network.node[59].core_layer 	data[59] 	9480
scalar dtelecom_network.node[59].content_store 	p_hit[59] 	0.21442172365262
scalar dtelecom_network.node[59].content_store 	hits[59] 	2590
scalar dtelecom_network.node[59].content_store 	misses[59] 	9489
scalar dtelecom_network.node[59].content_store 	decision_yes[59] 	491
scalar dtelecom_network.node[59].content_store 	decision_no[59] 	8989
scalar dtelecom_network.node[59].content_store 	decision_ratio[59] 	0.051793248945148
scalar dtelecom_network.node[60].core_layer 	interests[60] 	0
scalar dtelecom_network.node[60].core_layer 	data[60] 	0
scalar dtelecom_network.node[60].content_store 	p_hit[60] 	-nan
scalar dtelecom_network.node[60].content_store 	hits[60] 	0
scalar dtelecom_network.node[60].content_store 	misses[60] 	0
scalar dtelecom_network.node[60].content_store 	decision_yes[60] 	0
scalar dtelecom_network.node[60].content_store 	decision_no[60] 	0
scalar dtelecom_network.node[60].content_store 	decision_ratio[60] 	0
scalar dtelecom_network.node[61].core_layer 	interests[61] 	0
scalar dtelecom_network.node[61].core_layer 	data[61] 	0
scalar dtelecom_network.node[61].content_store 	p_hit[61] 	-nan
scalar dtelecom_network.node[61].content_store 	hits[61] 	0
scalar dtelecom_network.node[61].content_store 	misses[61] 	0
scalar dtelecom_network.node[61].content_store 	decision_yes[61] 	0
scalar dtelecom_network.node[61].content_store 	decision_no[61] 	0
scalar dtelecom_network.node[61].content_store 	decision_ratio[61] 	0
scalar dtelecom_network.node[62].core_layer 	interests[62] 	26074
scalar dtelecom_network.node[62].core_layer 	repo_load[62] 	13549
scalar dtelecom_network.node[62].core_layer 	data[62] 	9235
scalar dtelecom_network.node[62].content_store 	p_hit[62] 	0.12610263097338
scalar dtelecom_network.node[62].content_store 	hits[62] 	3288
scalar dtelecom_network.node[62].content_store 	misses[62] 	22786
scalar dtelecom_network.node[62].content_store 	decision_yes[62] 	1123
scalar dtelecom_network.node[62].content_store 	decision_no[62] 	21661
scalar dtelecom_network.node[62].content_store 	decision_ratio[62] 	0.049288974719101
scalar dtelecom_network.node[63].core_layer 	interests[63] 	0
scalar dtelecom_network.node[63].core_layer 	data[63] 	0
scalar dtelecom_network.node[63].content_store 	p_hit[63] 	-nan
scalar dtelecom_network.node[63].content_store 	hits[63] 	0
scalar dtelecom_network.node[63].content_store 	misses[63] 	0
scalar dtelecom_network.node[63].content_store 	decision_yes[63] 	0
scalar dtelecom_network.node[63].content_store 	decision_no[63] 	0
scalar dtelecom_network.node[63].content_store 	decision_ratio[63] 	0
scalar dtelecom_network.node[64].core_layer 	interests[64] 	15055
scalar dtelecom_network.node[64].core_layer 	repo_load[64] 	13161
scalar dtelecom_network.node[64].core_layer 	data[64] 	0
scalar dtelecom_network.node[64].content_store 	p_hit[64] 	0.12580538027233
scalar dtelecom_network.node[64].content_store 	hits[64] 	1894
scalar dtelecom_network.node[64].content_store 	misses[64] 	13161
scalar dtelecom_network.node[64].content_store 	decision_yes[64] 	655
scalar dtelecom_network.node[64].content_store 	decision_no[64] 	12506
scalar dtelecom_network.node[64].content_store 	decision_ratio[64] 	0.049768254691893
scalar dtelecom_network.node[65].core_layer 	interests[65] 	0
scalar dtelecom_network.node[65].core_layer 	data[65] 	0
scalar dtelecom_network.node[65].content_store 	p_hit[65] 	-nan
scalar dtelecom_network.node[65].content_store 	hits[65] 	0
scalar dtelecom_network.node[65].content_store 	misses[65] 	0
scalar dtelecom_network.node[65].content_store 	decision_yes[65] 	0
scalar dtelecom_network.node[65].content_store 	decision_no[65] 	0
scalar dtelecom_network.node[65].content_store 	decision_ratio[65] 	0
scalar dtelecom_network.node[66].core_layer 	interests[66] 	12092
scalar dtelecom_network.node[66].core_layer 	data[66] 	9399
scalar dtelecom_network.node[66].content_store 	p_hit[66] 	0.22237843202117
scalar dtelecom_network.node[66].content_store 	hits[66] 	2689
scalar dtelecom_network.node[66].content_store 	misses[66] 	9403
scalar dtelecom_network.node[66].content_store 	decision_yes[66] 	484
scalar dtelecom_network.node[66].content_store 	decision_no[66] 	8915
scalar dtelecom_network.node[66].content_store 	decision_ratio[66] 	0.051494839876583
scalar dtelecom_network.node[67].core_layer 	interests[67] 	11762
scalar dtelecom_network.node[67].core_layer 	data[67] 	9124
scalar dtelecom_network.node[67].content_store 	p_hit[67] 	0.224026526101
scalar dtelecom_network.node[67].content_store 	hits[67] 	2635
scalar dtelecom_network.node[67].content_store 	misses[67] 	9127
scalar dtelecom_network.node[67].content_store 	decision_yes[67] 	471
scalar dtelecom_network.node[67].content_store 	decision_no[67] 	8653
scalar dtelecom_network.node[67].content_store 	decision_ratio[67] 	0.051622095572117
scalar dtelecom_network.client[3] 	hdistance[3] 	1.4426762206299
scalar dtelecom_network.client[3] 	downloads[3] 	12002
scalar dtelecom_network.client[3] 	avg_time[3] 	0.010502591916
scalar dtelecom_network.client[4] 	hdistance[4] 	1.4208659793814
scalar dtelecom_network.client[4] 	downloads[4] 	12125
scalar dtelecom_network.client[4] 	avg_time[4] 	0.054940404754
scalar dtelecom_network.client[8] 	hdistance[8] 	2.079611489291
scalar dtelecom_network.client[8] 	downloads[8] 	12046
scalar dtelecom_network.client[8] 	avg_time[8] 	0.014368866282
scalar dtelecom_network.client[9] 	hdistance[9] 	1.9357760053174
scalar dtelecom_network.client[9] 	downloads[9] 	12036
scalar dtelecom_network.client[9] 	avg_time[9] 	0.013984449381
scalar dtelecom_network.client[17] 	hdistance[17] 	2.0657363819771
scalar dtelecom_network.client[17] 	downloads[17] 	11896
scalar dtelecom_network.client[17] 	avg_time[17] 	0.011971643642
scalar dtelecom_network.client[22] 	hdistance[22] 	2.06256273001
scalar dtelecom_network.client[22] 	downloads[22] 	11956
scalar dtelecom_network.client[22] 	avg_time[22] 	0.01332539623
scalar dtelecom_network.client[23] 	hdistance[23] 	1.7371623874625
scalar dtelecom_network.client[23] 	downloads[23] 	11996
scalar dtelecom_network.client[23] 	avg_time[23] 	0.010997264647
scalar dtelecom_network.client[28] 	hdistance[28] 	2.0037212449256
scalar dtelecom_network.client[28] 	downloads[28] 	11824
scalar dtelecom_network.client[28] 	avg_time[28] 	0.015693681704
scalar dtelecom_network.client[30] 	hdistance[30] 	2.1175828787243
scalar dtelecom_network.client[30] 	downloads[30] 	11915
scalar dtelecom_network.client[30] 	avg_time[30] 	0.014234510958
scalar dtelecom_network.client[31] 	hdistance[31] 	2.0560410015124
scalar dtelecom_network.client[31] 	downloads[31] 	11902
scalar dtelecom_network.client[31] 	avg_time[31] 	0.014782161119
scalar dtelecom_network.client[32] 	hdistance[32] 	2.1105452116557
scalar dtelecom_network.client[32] 	downloads[32] 	11977
scalar dtelecom_network.client[32] 	avg_time[32] 	0.01173859655
scalar dtelecom_network.client[33] 	hdistance[33] 	1.9692230909998
scalar dtelecom_network.client[33] 	downloads[33] 	12022
scalar dtelecom_network.client[33] 	avg_time[33] 	0.013427409916
scalar dtelecom_network.client[36] 	hdistance[36] 	2.0709780506265
scalar dtelecom_network.client[36] 	downloads[36] 	11891
scalar dtelecom_network.client[36] 	avg_time[36] 	0.013638667315
scalar dtelecom_network.client[37] 	hdistance[37] 	2.0340199223366
scalar dtelecom_network.client[37] 	downloads[37] 	11846
scalar dtelecom_network.client[37] 	avg_time[37] 	0.012699212787
scalar dtelecom_network.client[40] 	hdistance[40] 	1.9781821175696
scalar dtelecom_network.client[40] 	downloads[40] 	12146
scalar dtelecom_network.client[40] 	avg_time[40] 	0.014433245001
scalar dtelecom_network.client[42] 	hdistance[42] 	2.0858143607706
scalar dtelecom_network.client[42] 	downloads[42] 	11991
scalar dtelecom_network.client[42] 	avg_time[42] 	0.014597971714
scalar dtelecom_network.client[45] 	hdistance[45] 	2.0537445670344
scalar dtelecom_network.client[45] 	downloads[45] 	11964
scalar dtelecom_network.client[45] 	avg_time[45] 	0.013514524278
scalar dtelecom_network.client[46] 	hdistance[46] 	2.0086450540316
scalar dtelecom_network.client[46] 	downloads[46] 	12030
scalar dtelecom_network.client[46] 	avg_time[46] 	0.015613504857
scalar dtelecom_network.client[48] 	hdistance[48] 	2.0578160247306
scalar dtelecom_network.client[48] 	downloads[48] 	11969
scalar dtelecom_network.client[48] 	avg_time[48] 	0.014067765883
scalar dtelecom_network.client[49] 	hdistance[49] 	2.0816965797494
scalar dtelecom_network.client[49] 	downloads[49] 	11812
scalar dtelecom_network.client[49] 	avg_time[49] 	0.013220066388
scalar dtelecom_network.client[50] 	hdistance[50] 	2.1056243722799
scalar dtelecom_network.client[50] 	downloads[50] 	11948
scalar dtelecom_network.client[50] 	avg_time[50] 	0.012554235591
scalar dtelecom_network.client[51] 	hdistance[51] 	2.0422948073702
scalar dtelecom_network.client[51] 	downloads[51] 	11940
scalar dtelecom_network.client[51] 	avg_time[51] 	0.013982383585
scalar dtelecom_network.client[53] 	hdistance[53] 	2.043879520094
scalar dtelecom_network.client[53] 	downloads[53] 	11919
scalar dtelecom_network.client[53] 	avg_time[53] 	0.012366710622
scalar dtelecom_network.client[54] 	hdistance[54] 	2.0882180293501
scalar dtelecom_network.client[54] 	downloads[54] 	11925
scalar dtelecom_network.client[54] 	avg_time[54] 	0.014560134247
scalar dtelecom_network.client[55] 	hdistance[55] 	2.0111931017329
scalar dtelecom_network.client[55] 	downloads[55] 	12061
scalar dtelecom_network.client[55] 	avg_time[55] 	0.016537938057
scalar dtelecom_network.client[56] 	hdistance[56] 	2.0586316493811
scalar dtelecom_network.client[56] 	downloads[56] 	11956
scalar dtelecom_network.client[56] 	avg_time[56] 	0.012892650408
scalar dtelecom_network.client[57] 	hdistance[57] 	2.0965692503177
scalar dtelecom_network.client[57] 	downloads[57] 	11805
scalar dtelecom_network.client[57] 	avg_time[57] 	0.012081830542
scalar dtelecom_network.client[58] 	hdistance[58] 	2.0952181559333
scalar dtelecom_network.client[58] 	downloads[58] 	11941
scalar dtelecom_network.client[58] 	avg_time[58] 	0.014817604728
scalar dtelecom_network.client[59] 	hdistance[59] 	1.9893951946976
scalar dtelecom_network.client[59] 	downloads[59] 	12070
scalar dtelecom_network.client[59] 	avg_time[59] 	0.060638256081
scalar dtelecom_network.client[62] 	hdistance[62] 	2.3698618668899
scalar dtelecom_network.client[62] 	downloads[62] 	11945
scalar dtelecom_network.client[62] 	avg_time[62] 	0.059058411565
scalar dtelecom_network.client[66] 	hdistance[66] 	2.1283090668431
scalar dtelecom_network.client[66] 	downloads[66] 	12088
scalar dtelecom_network.client[66] 	avg_time[66] 	0.09753668669
scalar dtelecom_network.client[67] 	hdistance[67] 	2.1230546815206
scalar dtelecom_network.client[67] 	downloads[67] 	11759
scalar dtelecom_network.client[67] 	avg_time[67] 	0.081663689006
