version 2
run General-15-20160819-10:47:50-2054
attr a 0.9
attr cd lcd
attr configname General
attr cr lru
attr datetime 20160819-10:47:50
attr experiment General
attr fsize 1
attr inifile hw5115/scenario_A/NRR-LCD.ini
attr iterationvars "$name=tree_4_3, $un=00, $rep=16, $cd=lcd, $cr=lru, $fsize=1, $a=0.9, $sl=nrr, $ttl=1000, $variance=0.05"
attr iterationvars2 "$name=tree_4_3, $un=00, $rep=16, $cd=lcd, $cr=lru, $fsize=1, $a=0.9, $sl=nrr, $ttl=1000, $variance=0.05, $repetition=0"
attr measurement "$name=tree_4_3, $un=00, $rep=16, $cd=lcd, $cr=lru, $fsize=1, $a=0.9, $sl=nrr, $ttl=1000, $variance=0.05"
attr name tree_4_3
attr network networks.${name}_u${un}_r${rep}_network
attr processid 2054
attr rep 16
attr repetition 0
attr replication #0
attr resultdir results
attr runnumber 15
attr seedset 16
attr sl nrr
attr ttl 1000
attr un 00
attr variance 0.05

scalar . 	a 	0.9
scalar . 	fsize 	1
scalar . 	rep 	16
scalar . 	ttl 	1000
scalar . 	un 	00
scalar . 	variance 	0.05
scalar tree_4_3_u00_r16_network.content_distribution 	repo-0 	0
scalar tree_4_3_u00_r16_network.content_distribution 	client-0 	13
scalar tree_4_3_u00_r16_network.content_distribution 	client-1 	14
scalar tree_4_3_u00_r16_network.content_distribution 	client-2 	15
scalar tree_4_3_u00_r16_network.content_distribution 	client-3 	16
scalar tree_4_3_u00_r16_network.content_distribution 	client-4 	17
scalar tree_4_3_u00_r16_network.content_distribution 	client-5 	18
scalar tree_4_3_u00_r16_network.content_distribution 	client-6 	19
scalar tree_4_3_u00_r16_network.content_distribution 	client-7 	20
scalar tree_4_3_u00_r16_network.content_distribution 	client-8 	21
scalar tree_4_3_u00_r16_network.content_distribution 	client-9 	22
scalar tree_4_3_u00_r16_network.content_distribution 	client-10 	23
scalar tree_4_3_u00_r16_network.content_distribution 	client-11 	24
scalar tree_4_3_u00_r16_network.content_distribution 	client-12 	25
scalar tree_4_3_u00_r16_network.content_distribution 	client-13 	26
scalar tree_4_3_u00_r16_network.content_distribution 	client-14 	27
scalar tree_4_3_u00_r16_network.content_distribution 	client-15 	28
scalar tree_4_3_u00_r16_network.content_distribution 	client-16 	29
scalar tree_4_3_u00_r16_network.content_distribution 	client-17 	30
scalar tree_4_3_u00_r16_network.content_distribution 	client-18 	31
scalar tree_4_3_u00_r16_network.content_distribution 	client-19 	32
scalar tree_4_3_u00_r16_network.content_distribution 	client-20 	33
scalar tree_4_3_u00_r16_network.content_distribution 	client-21 	34
scalar tree_4_3_u00_r16_network.content_distribution 	client-22 	35
scalar tree_4_3_u00_r16_network.content_distribution 	client-23 	36
scalar tree_4_3_u00_r16_network.content_distribution 	client-24 	37
scalar tree_4_3_u00_r16_network.content_distribution 	client-25 	38
scalar tree_4_3_u00_r16_network.content_distribution 	client-26 	39
scalar tree_4_3_u00_r16_network.content_distribution 	repo-0_card 	100000
scalar tree_4_3_u00_r16_network.content_distribution 	repo-0_price 	0
scalar tree_4_3_u00_r16_network.statistics 	stabilization_time 	913.1
scalar tree_4_3_u00_r16_network.statistics 	p_hit 	0.20489777002197
scalar tree_4_3_u00_r16_network.statistics 	interests 	25117.475
scalar tree_4_3_u00_r16_network.statistics 	data 	17010.625
scalar tree_4_3_u00_r16_network.statistics 	hdistance 	2.7523653121494
scalar tree_4_3_u00_r16_network.statistics 	avg_time 	0.004196580194
scalar tree_4_3_u00_r16_network.statistics 	downloads 	324271
scalar tree_4_3_u00_r16_network.statistics 	total_cost 	0
scalar tree_4_3_u00_r16_network.statistics 	total_replicas 	100000
scalar tree_4_3_u00_r16_network.statistics 	inner_hit 	0.34593287713055
scalar tree_4_3_u00_r16_network.node[0].core_layer 	interests[0] 	213758
scalar tree_4_3_u00_r16_network.node[0].core_layer 	repo_load[0] 	212095
scalar tree_4_3_u00_r16_network.node[0].core_layer 	data[0] 	0
scalar tree_4_3_u00_r16_network.node[0].core_layer 	repo_int[0] 	212095
scalar tree_4_3_u00_r16_network.node[0].content_store 	p_hit[0] 	0.0077798257842981
scalar tree_4_3_u00_r16_network.node[0].content_store 	hits[0] 	1663
scalar tree_4_3_u00_r16_network.node[0].content_store 	misses[0] 	212095
scalar tree_4_3_u00_r16_network.node[0].content_store 	decision_yes[0] 	212095
scalar tree_4_3_u00_r16_network.node[0].content_store 	decision_no[0] 	0
scalar tree_4_3_u00_r16_network.node[0].content_store 	decision_ratio[0] 	1
scalar tree_4_3_u00_r16_network.node[1].core_layer 	interests[1] 	73768
scalar tree_4_3_u00_r16_network.node[1].core_layer 	data[1] 	72243
scalar tree_4_3_u00_r16_network.node[1].content_store 	p_hit[1] 	0.020672920507537
scalar tree_4_3_u00_r16_network.node[1].content_store 	hits[1] 	1525
scalar tree_4_3_u00_r16_network.node[1].content_store 	misses[1] 	72243
scalar tree_4_3_u00_r16_network.node[1].content_store 	decision_yes[1] 	1406
scalar tree_4_3_u00_r16_network.node[1].content_store 	decision_no[1] 	70837
scalar tree_4_3_u00_r16_network.node[1].content_store 	decision_ratio[1] 	0.019462093213183
scalar tree_4_3_u00_r16_network.node[2].core_layer 	interests[2] 	73969
scalar tree_4_3_u00_r16_network.node[2].core_layer 	data[2] 	72486
scalar tree_4_3_u00_r16_network.node[2].content_store 	p_hit[2] 	0.020035420243616
scalar tree_4_3_u00_r16_network.node[2].content_store 	hits[2] 	1482
scalar tree_4_3_u00_r16_network.node[2].content_store 	misses[2] 	72487
scalar tree_4_3_u00_r16_network.node[2].content_store 	decision_yes[2] 	1430
scalar tree_4_3_u00_r16_network.node[2].content_store 	decision_no[2] 	71056
scalar tree_4_3_u00_r16_network.node[2].content_store 	decision_ratio[2] 	0.019727947465718
scalar tree_4_3_u00_r16_network.node[3].core_layer 	interests[3] 	73839
scalar tree_4_3_u00_r16_network.node[3].core_layer 	data[3] 	72292
scalar tree_4_3_u00_r16_network.node[3].content_store 	p_hit[3] 	0.020950987960292
scalar tree_4_3_u00_r16_network.node[3].content_store 	hits[3] 	1547
scalar tree_4_3_u00_r16_network.node[3].content_store 	misses[3] 	72292
scalar tree_4_3_u00_r16_network.node[3].content_store 	decision_yes[3] 	1345
scalar tree_4_3_u00_r16_network.node[3].content_store 	decision_no[3] 	70947
scalar tree_4_3_u00_r16_network.node[3].content_store 	decision_ratio[3] 	0.018605101532673
scalar tree_4_3_u00_r16_network.node[4].core_layer 	interests[4] 	26482
scalar tree_4_3_u00_r16_network.node[4].core_layer 	data[4] 	25076
scalar tree_4_3_u00_r16_network.node[4].content_store 	p_hit[4] 	0.053092666717015
scalar tree_4_3_u00_r16_network.node[4].content_store 	hits[4] 	1406
scalar tree_4_3_u00_r16_network.node[4].content_store 	misses[4] 	25076
scalar tree_4_3_u00_r16_network.node[4].content_store 	decision_yes[4] 	1178
scalar tree_4_3_u00_r16_network.node[4].content_store 	decision_no[4] 	23898
scalar tree_4_3_u00_r16_network.node[4].content_store 	decision_ratio[4] 	0.046977189344393
scalar tree_4_3_u00_r16_network.node[5].core_layer 	interests[5] 	26839
scalar tree_4_3_u00_r16_network.node[5].core_layer 	data[5] 	25479
scalar tree_4_3_u00_r16_network.node[5].content_store 	p_hit[5] 	0.050672528782742
scalar tree_4_3_u00_r16_network.node[5].content_store 	hits[5] 	1360
scalar tree_4_3_u00_r16_network.node[5].content_store 	misses[5] 	25479
scalar tree_4_3_u00_r16_network.node[5].content_store 	decision_yes[5] 	1068
scalar tree_4_3_u00_r16_network.node[5].content_store 	decision_no[5] 	24411
scalar tree_4_3_u00_r16_network.node[5].content_store 	decision_ratio[5] 	0.04191687271871
scalar tree_4_3_u00_r16_network.node[6].core_layer 	interests[6] 	26452
scalar tree_4_3_u00_r16_network.node[6].core_layer 	data[6] 	25095
scalar tree_4_3_u00_r16_network.node[6].content_store 	p_hit[6] 	0.051300468773628
scalar tree_4_3_u00_r16_network.node[6].content_store 	hits[6] 	1357
scalar tree_4_3_u00_r16_network.node[6].content_store 	misses[6] 	25095
scalar tree_4_3_u00_r16_network.node[6].content_store 	decision_yes[6] 	1161
scalar tree_4_3_u00_r16_network.node[6].content_store 	decision_no[6] 	23934
scalar tree_4_3_u00_r16_network.node[6].content_store 	decision_ratio[6] 	0.046264196054991
scalar tree_4_3_u00_r16_network.node[7].core_layer 	interests[7] 	26392
scalar tree_4_3_u00_r16_network.node[7].core_layer 	data[7] 	25019
scalar tree_4_3_u00_r16_network.node[7].content_store 	p_hit[7] 	0.052023340406184
scalar tree_4_3_u00_r16_network.node[7].content_store 	hits[7] 	1373
scalar tree_4_3_u00_r16_network.node[7].content_store 	misses[7] 	25019
scalar tree_4_3_u00_r16_network.node[7].content_store 	decision_yes[7] 	1114
scalar tree_4_3_u00_r16_network.node[7].content_store 	decision_no[7] 	23905
scalar tree_4_3_u00_r16_network.node[7].content_store 	decision_ratio[7] 	0.04452616011831
scalar tree_4_3_u00_r16_network.node[8].core_layer 	interests[8] 	26866
scalar tree_4_3_u00_r16_network.node[8].core_layer 	data[8] 	25527
scalar tree_4_3_u00_r16_network.node[8].content_store 	p_hit[8] 	0.049802724633366
scalar tree_4_3_u00_r16_network.node[8].content_store 	hits[8] 	1338
scalar tree_4_3_u00_r16_network.node[8].content_store 	misses[8] 	25528
scalar tree_4_3_u00_r16_network.node[8].content_store 	decision_yes[8] 	1126
scalar tree_4_3_u00_r16_network.node[8].content_store 	decision_no[8] 	24401
scalar tree_4_3_u00_r16_network.node[8].content_store 	decision_ratio[8] 	0.044110157872057
scalar tree_4_3_u00_r16_network.node[9].core_layer 	interests[9] 	26712
scalar tree_4_3_u00_r16_network.node[9].core_layer 	data[9] 	25302
scalar tree_4_3_u00_r16_network.node[9].content_store 	p_hit[9] 	0.052785265049416
scalar tree_4_3_u00_r16_network.node[9].content_store 	hits[9] 	1410
scalar tree_4_3_u00_r16_network.node[9].content_store 	misses[9] 	25302
scalar tree_4_3_u00_r16_network.node[9].content_store 	decision_yes[9] 	1121
scalar tree_4_3_u00_r16_network.node[9].content_store 	decision_no[9] 	24181
scalar tree_4_3_u00_r16_network.node[9].content_store 	decision_ratio[9] 	0.044304798039681
scalar tree_4_3_u00_r16_network.node[10].core_layer 	interests[10] 	26626
scalar tree_4_3_u00_r16_network.node[10].core_layer 	data[10] 	25226
scalar tree_4_3_u00_r16_network.node[10].content_store 	p_hit[10] 	0.052580184781792
scalar tree_4_3_u00_r16_network.node[10].content_store 	hits[10] 	1400
scalar tree_4_3_u00_r16_network.node[10].content_store 	misses[10] 	25226
scalar tree_4_3_u00_r16_network.node[10].content_store 	decision_yes[10] 	1102
scalar tree_4_3_u00_r16_network.node[10].content_store 	decision_no[10] 	24124
scalar tree_4_3_u00_r16_network.node[10].content_store 	decision_ratio[10] 	0.043685086815191
scalar tree_4_3_u00_r16_network.node[11].core_layer 	interests[11] 	26452
scalar tree_4_3_u00_r16_network.node[11].core_layer 	data[11] 	25104
scalar tree_4_3_u00_r16_network.node[11].content_store 	p_hit[11] 	0.050960229850295
scalar tree_4_3_u00_r16_network.node[11].content_store 	hits[11] 	1348
scalar tree_4_3_u00_r16_network.node[11].content_store 	misses[11] 	25104
scalar tree_4_3_u00_r16_network.node[11].content_store 	decision_yes[11] 	1129
scalar tree_4_3_u00_r16_network.node[11].content_store 	decision_no[11] 	23975
scalar tree_4_3_u00_r16_network.node[11].content_store 	decision_ratio[11] 	0.044972912683238
scalar tree_4_3_u00_r16_network.node[12].core_layer 	interests[12] 	26684
scalar tree_4_3_u00_r16_network.node[12].core_layer 	data[12] 	25334
scalar tree_4_3_u00_r16_network.node[12].content_store 	p_hit[12] 	0.050554639484335
scalar tree_4_3_u00_r16_network.node[12].content_store 	hits[12] 	1349
scalar tree_4_3_u00_r16_network.node[12].content_store 	misses[12] 	25335
scalar tree_4_3_u00_r16_network.node[12].content_store 	decision_yes[12] 	1141
scalar tree_4_3_u00_r16_network.node[12].content_store 	decision_no[12] 	24193
scalar tree_4_3_u00_r16_network.node[12].content_store 	decision_ratio[12] 	0.045038288466093
scalar tree_4_3_u00_r16_network.node[13].core_layer 	interests[13] 	12319
scalar tree_4_3_u00_r16_network.node[13].core_layer 	data[13] 	8816
scalar tree_4_3_u00_r16_network.node[13].content_store 	p_hit[13] 	0.28427632112996
scalar tree_4_3_u00_r16_network.node[13].content_store 	hits[13] 	3502
scalar tree_4_3_u00_r16_network.node[13].content_store 	misses[13] 	8817
scalar tree_4_3_u00_r16_network.node[13].content_store 	decision_yes[13] 	372
scalar tree_4_3_u00_r16_network.node[13].content_store 	decision_no[13] 	8444
scalar tree_4_3_u00_r16_network.node[13].content_store 	decision_ratio[13] 	0.042196007259528
scalar tree_4_3_u00_r16_network.node[14].core_layer 	interests[14] 	12199
scalar tree_4_3_u00_r16_network.node[14].core_layer 	data[14] 	8704
scalar tree_4_3_u00_r16_network.node[14].content_store 	p_hit[14] 	0.28649889335191
scalar tree_4_3_u00_r16_network.node[14].content_store 	hits[14] 	3495
scalar tree_4_3_u00_r16_network.node[14].content_store 	misses[14] 	8704
scalar tree_4_3_u00_r16_network.node[14].content_store 	decision_yes[14] 	382
scalar tree_4_3_u00_r16_network.node[14].content_store 	decision_no[14] 	8322
scalar tree_4_3_u00_r16_network.node[14].content_store 	decision_ratio[14] 	0.043887867647059
scalar tree_4_3_u00_r16_network.node[15].core_layer 	interests[15] 	12044
scalar tree_4_3_u00_r16_network.node[15].core_layer 	data[15] 	8585
scalar tree_4_3_u00_r16_network.node[15].content_store 	p_hit[15] 	0.2871969445367
scalar tree_4_3_u00_r16_network.node[15].content_store 	hits[15] 	3459
scalar tree_4_3_u00_r16_network.node[15].content_store 	misses[15] 	8585
scalar tree_4_3_u00_r16_network.node[15].content_store 	decision_yes[15] 	368
scalar tree_4_3_u00_r16_network.node[15].content_store 	decision_no[15] 	8217
scalar tree_4_3_u00_r16_network.node[15].content_store 	decision_ratio[15] 	0.04286546301689
scalar tree_4_3_u00_r16_network.node[16].core_layer 	interests[16] 	12359
scalar tree_4_3_u00_r16_network.node[16].core_layer 	data[16] 	8811
scalar tree_4_3_u00_r16_network.node[16].content_store 	p_hit[16] 	0.28699732988106
scalar tree_4_3_u00_r16_network.node[16].content_store 	hits[16] 	3547
scalar tree_4_3_u00_r16_network.node[16].content_store 	misses[16] 	8812
scalar tree_4_3_u00_r16_network.node[16].content_store 	decision_yes[16] 	354
scalar tree_4_3_u00_r16_network.node[16].content_store 	decision_no[16] 	8457
scalar tree_4_3_u00_r16_network.node[16].content_store 	decision_ratio[16] 	0.040177051413006
scalar tree_4_3_u00_r16_network.node[17].core_layer 	interests[17] 	12094
scalar tree_4_3_u00_r16_network.node[17].core_layer 	data[17] 	8668
scalar tree_4_3_u00_r16_network.node[17].content_store 	p_hit[17] 	0.28328096576815
scalar tree_4_3_u00_r16_network.node[17].content_store 	hits[17] 	3426
scalar tree_4_3_u00_r16_network.node[17].content_store 	misses[17] 	8668
scalar tree_4_3_u00_r16_network.node[17].content_store 	decision_yes[17] 	360
scalar tree_4_3_u00_r16_network.node[17].content_store 	decision_no[17] 	8308
scalar tree_4_3_u00_r16_network.node[17].content_store 	decision_ratio[17] 	0.041532071988925
scalar tree_4_3_u00_r16_network.node[18].core_layer 	interests[18] 	12429
scalar tree_4_3_u00_r16_network.node[18].core_layer 	data[18] 	8979
scalar tree_4_3_u00_r16_network.node[18].content_store 	p_hit[18] 	0.27757663528844
scalar tree_4_3_u00_r16_network.node[18].content_store 	hits[18] 	3450
scalar tree_4_3_u00_r16_network.node[18].content_store 	misses[18] 	8979
scalar tree_4_3_u00_r16_network.node[18].content_store 	decision_yes[18] 	348
scalar tree_4_3_u00_r16_network.node[18].content_store 	decision_no[18] 	8631
scalar tree_4_3_u00_r16_network.node[18].content_store 	decision_ratio[18] 	0.038757099899766
scalar tree_4_3_u00_r16_network.node[19].core_layer 	interests[19] 	12114
scalar tree_4_3_u00_r16_network.node[19].core_layer 	data[19] 	8655
scalar tree_4_3_u00_r16_network.node[19].content_store 	p_hit[19] 	0.28553739474988
scalar tree_4_3_u00_r16_network.node[19].content_store 	hits[19] 	3459
scalar tree_4_3_u00_r16_network.node[19].content_store 	misses[19] 	8655
scalar tree_4_3_u00_r16_network.node[19].content_store 	decision_yes[19] 	382
scalar tree_4_3_u00_r16_network.node[19].content_store 	decision_no[19] 	8273
scalar tree_4_3_u00_r16_network.node[19].content_store 	decision_ratio[19] 	0.044136337377239
scalar tree_4_3_u00_r16_network.node[20].core_layer 	interests[20] 	12144
scalar tree_4_3_u00_r16_network.node[20].core_layer 	data[20] 	8606
scalar tree_4_3_u00_r16_network.node[20].content_store 	p_hit[20] 	0.2913372859025
scalar tree_4_3_u00_r16_network.node[20].content_store 	hits[20] 	3538
scalar tree_4_3_u00_r16_network.node[20].content_store 	misses[20] 	8606
scalar tree_4_3_u00_r16_network.node[20].content_store 	decision_yes[20] 	340
scalar tree_4_3_u00_r16_network.node[20].content_store 	decision_no[20] 	8266
scalar tree_4_3_u00_r16_network.node[20].content_store 	decision_ratio[20] 	0.039507320474088
scalar tree_4_3_u00_r16_network.node[21].core_layer 	interests[21] 	12300
scalar tree_4_3_u00_r16_network.node[21].core_layer 	data[21] 	8820
scalar tree_4_3_u00_r16_network.node[21].content_store 	p_hit[21] 	0.28292682926829
scalar tree_4_3_u00_r16_network.node[21].content_store 	hits[21] 	3480
scalar tree_4_3_u00_r16_network.node[21].content_store 	misses[21] 	8820
scalar tree_4_3_u00_r16_network.node[21].content_store 	decision_yes[21] 	357
scalar tree_4_3_u00_r16_network.node[21].content_store 	decision_no[21] 	8463
scalar tree_4_3_u00_r16_network.node[21].content_store 	decision_ratio[21] 	0.04047619047619
scalar tree_4_3_u00_r16_network.node[22].core_layer 	interests[22] 	12193
scalar tree_4_3_u00_r16_network.node[22].core_layer 	data[22] 	8735
scalar tree_4_3_u00_r16_network.node[22].content_store 	p_hit[22] 	0.28360534733044
scalar tree_4_3_u00_r16_network.node[22].content_store 	hits[22] 	3458
scalar tree_4_3_u00_r16_network.node[22].content_store 	misses[22] 	8735
scalar tree_4_3_u00_r16_network.node[22].content_store 	decision_yes[22] 	375
scalar tree_4_3_u00_r16_network.node[22].content_store 	decision_no[22] 	8360
scalar tree_4_3_u00_r16_network.node[22].content_store 	decision_ratio[22] 	0.042930738408701
scalar tree_4_3_u00_r16_network.node[23].core_layer 	interests[23] 	12118
scalar tree_4_3_u00_r16_network.node[23].core_layer 	data[23] 	8628
scalar tree_4_3_u00_r16_network.node[23].content_store 	p_hit[23] 	0.2879187984816
scalar tree_4_3_u00_r16_network.node[23].content_store 	hits[23] 	3489
scalar tree_4_3_u00_r16_network.node[23].content_store 	misses[23] 	8629
scalar tree_4_3_u00_r16_network.node[23].content_store 	decision_yes[23] 	374
scalar tree_4_3_u00_r16_network.node[23].content_store 	decision_no[23] 	8254
scalar tree_4_3_u00_r16_network.node[23].content_store 	decision_ratio[23] 	0.043347241539175
scalar tree_4_3_u00_r16_network.node[24].core_layer 	interests[24] 	12372
scalar tree_4_3_u00_r16_network.node[24].core_layer 	data[24] 	8690
scalar tree_4_3_u00_r16_network.node[24].content_store 	p_hit[24] 	0.29760750080828
scalar tree_4_3_u00_r16_network.node[24].content_store 	hits[24] 	3682
scalar tree_4_3_u00_r16_network.node[24].content_store 	misses[24] 	8690
scalar tree_4_3_u00_r16_network.node[24].content_store 	decision_yes[24] 	360
scalar tree_4_3_u00_r16_network.node[24].content_store 	decision_no[24] 	8330
scalar tree_4_3_u00_r16_network.node[24].content_store 	decision_ratio[24] 	0.041426927502877
scalar tree_4_3_u00_r16_network.node[25].core_layer 	interests[25] 	12205
scalar tree_4_3_u00_r16_network.node[25].core_layer 	data[25] 	8756
scalar tree_4_3_u00_r16_network.node[25].content_store 	p_hit[25] 	0.28258910282671
scalar tree_4_3_u00_r16_network.node[25].content_store 	hits[25] 	3449
scalar tree_4_3_u00_r16_network.node[25].content_store 	misses[25] 	8756
scalar tree_4_3_u00_r16_network.node[25].content_store 	decision_yes[25] 	359
scalar tree_4_3_u00_r16_network.node[25].content_store 	decision_no[25] 	8397
scalar tree_4_3_u00_r16_network.node[25].content_store 	decision_ratio[25] 	0.041000456829603
scalar tree_4_3_u00_r16_network.node[26].core_layer 	interests[26] 	12300
scalar tree_4_3_u00_r16_network.node[26].core_layer 	data[26] 	8890
scalar tree_4_3_u00_r16_network.node[26].content_store 	p_hit[26] 	0.27723577235772
scalar tree_4_3_u00_r16_network.node[26].content_store 	hits[26] 	3410
scalar tree_4_3_u00_r16_network.node[26].content_store 	misses[26] 	8890
scalar tree_4_3_u00_r16_network.node[26].content_store 	decision_yes[26] 	353
scalar tree_4_3_u00_r16_network.node[26].content_store 	decision_no[26] 	8537
scalar tree_4_3_u00_r16_network.node[26].content_store 	decision_ratio[26] 	0.03970753655793
scalar tree_4_3_u00_r16_network.node[27].core_layer 	interests[27] 	12343
scalar tree_4_3_u00_r16_network.node[27].core_layer 	data[27] 	8838
scalar tree_4_3_u00_r16_network.node[27].content_store 	p_hit[27] 	0.28404763833752
scalar tree_4_3_u00_r16_network.node[27].content_store 	hits[27] 	3506
scalar tree_4_3_u00_r16_network.node[27].content_store 	misses[27] 	8837
scalar tree_4_3_u00_r16_network.node[27].content_store 	decision_yes[27] 	328
scalar tree_4_3_u00_r16_network.node[27].content_store 	decision_no[27] 	8510
scalar tree_4_3_u00_r16_network.node[27].content_store 	decision_ratio[27] 	0.037112468884363
scalar tree_4_3_u00_r16_network.node[28].core_layer 	interests[28] 	12159
scalar tree_4_3_u00_r16_network.node[28].core_layer 	data[28] 	8697
scalar tree_4_3_u00_r16_network.node[28].content_store 	p_hit[28] 	0.28472736244757
scalar tree_4_3_u00_r16_network.node[28].content_store 	hits[28] 	3462
scalar tree_4_3_u00_r16_network.node[28].content_store 	misses[28] 	8697
scalar tree_4_3_u00_r16_network.node[28].content_store 	decision_yes[28] 	382
scalar tree_4_3_u00_r16_network.node[28].content_store 	decision_no[28] 	8315
scalar tree_4_3_u00_r16_network.node[28].content_store 	decision_ratio[28] 	0.043923191905255
scalar tree_4_3_u00_r16_network.node[29].core_layer 	interests[29] 	12335
scalar tree_4_3_u00_r16_network.node[29].core_layer 	data[29] 	8822
scalar tree_4_3_u00_r16_network.node[29].content_store 	p_hit[29] 	0.28479935143899
scalar tree_4_3_u00_r16_network.node[29].content_store 	hits[29] 	3513
scalar tree_4_3_u00_r16_network.node[29].content_store 	misses[29] 	8822
scalar tree_4_3_u00_r16_network.node[29].content_store 	decision_yes[29] 	356
scalar tree_4_3_u00_r16_network.node[29].content_store 	decision_no[29] 	8466
scalar tree_4_3_u00_r16_network.node[29].content_store 	decision_ratio[29] 	0.040353661301292
scalar tree_4_3_u00_r16_network.node[30].core_layer 	interests[30] 	12164
scalar tree_4_3_u00_r16_network.node[30].core_layer 	data[30] 	8819
scalar tree_4_3_u00_r16_network.node[30].content_store 	p_hit[30] 	0.27499177902006
scalar tree_4_3_u00_r16_network.node[30].content_store 	hits[30] 	3345
scalar tree_4_3_u00_r16_network.node[30].content_store 	misses[30] 	8819
scalar tree_4_3_u00_r16_network.node[30].content_store 	decision_yes[30] 	381
scalar tree_4_3_u00_r16_network.node[30].content_store 	decision_no[30] 	8438
scalar tree_4_3_u00_r16_network.node[30].content_store 	decision_ratio[30] 	0.043202177117587
scalar tree_4_3_u00_r16_network.node[31].core_layer 	interests[31] 	12339
scalar tree_4_3_u00_r16_network.node[31].core_layer 	data[31] 	8872
scalar tree_4_3_u00_r16_network.node[31].content_store 	p_hit[31] 	0.28097900964422
scalar tree_4_3_u00_r16_network.node[31].content_store 	hits[31] 	3467
scalar tree_4_3_u00_r16_network.node[31].content_store 	misses[31] 	8872
scalar tree_4_3_u00_r16_network.node[31].content_store 	decision_yes[31] 	387
scalar tree_4_3_u00_r16_network.node[31].content_store 	decision_no[31] 	8485
scalar tree_4_3_u00_r16_network.node[31].content_store 	decision_ratio[31] 	0.043620378719567
scalar tree_4_3_u00_r16_network.node[32].core_layer 	interests[32] 	12053
scalar tree_4_3_u00_r16_network.node[32].core_layer 	data[32] 	8629
scalar tree_4_3_u00_r16_network.node[32].content_store 	p_hit[32] 	0.28407865261761
scalar tree_4_3_u00_r16_network.node[32].content_store 	hits[32] 	3424
scalar tree_4_3_u00_r16_network.node[32].content_store 	misses[32] 	8629
scalar tree_4_3_u00_r16_network.node[32].content_store 	decision_yes[32] 	358
scalar tree_4_3_u00_r16_network.node[32].content_store 	decision_no[32] 	8271
scalar tree_4_3_u00_r16_network.node[32].content_store 	decision_ratio[32] 	0.041488005562638
scalar tree_4_3_u00_r16_network.node[33].core_layer 	interests[33] 	12122
scalar tree_4_3_u00_r16_network.node[33].core_layer 	data[33] 	8783
scalar tree_4_3_u00_r16_network.node[33].content_store 	p_hit[33] 	0.27544959577627
scalar tree_4_3_u00_r16_network.node[33].content_store 	hits[33] 	3339
scalar tree_4_3_u00_r16_network.node[33].content_store 	misses[33] 	8783
scalar tree_4_3_u00_r16_network.node[33].content_store 	decision_yes[33] 	390
scalar tree_4_3_u00_r16_network.node[33].content_store 	decision_no[33] 	8393
scalar tree_4_3_u00_r16_network.node[33].content_store 	decision_ratio[33] 	0.044403962199704
scalar tree_4_3_u00_r16_network.node[34].core_layer 	interests[34] 	12226
scalar tree_4_3_u00_r16_network.node[34].core_layer 	data[34] 	8782
scalar tree_4_3_u00_r16_network.node[34].content_store 	p_hit[34] 	0.2816947488958
scalar tree_4_3_u00_r16_network.node[34].content_store 	hits[34] 	3444
scalar tree_4_3_u00_r16_network.node[34].content_store 	misses[34] 	8782
scalar tree_4_3_u00_r16_network.node[34].content_store 	decision_yes[34] 	356
scalar tree_4_3_u00_r16_network.node[34].content_store 	decision_no[34] 	8426
scalar tree_4_3_u00_r16_network.node[34].content_store 	decision_ratio[34] 	0.040537462992485
scalar tree_4_3_u00_r16_network.node[35].core_layer 	interests[35] 	12044
scalar tree_4_3_u00_r16_network.node[35].core_layer 	data[35] 	8638
scalar tree_4_3_u00_r16_network.node[35].content_store 	p_hit[35] 	0.28279641315178
scalar tree_4_3_u00_r16_network.node[35].content_store 	hits[35] 	3406
scalar tree_4_3_u00_r16_network.node[35].content_store 	misses[35] 	8638
scalar tree_4_3_u00_r16_network.node[35].content_store 	decision_yes[35] 	358
scalar tree_4_3_u00_r16_network.node[35].content_store 	decision_no[35] 	8280
scalar tree_4_3_u00_r16_network.node[35].content_store 	decision_ratio[35] 	0.041444778884001
scalar tree_4_3_u00_r16_network.node[36].core_layer 	interests[36] 	12148
scalar tree_4_3_u00_r16_network.node[36].core_layer 	data[36] 	8674
scalar tree_4_3_u00_r16_network.node[36].content_store 	p_hit[36] 	0.28589068159368
scalar tree_4_3_u00_r16_network.node[36].content_store 	hits[36] 	3473
scalar tree_4_3_u00_r16_network.node[36].content_store 	misses[36] 	8675
scalar tree_4_3_u00_r16_network.node[36].content_store 	decision_yes[36] 	359
scalar tree_4_3_u00_r16_network.node[36].content_store 	decision_no[36] 	8315
scalar tree_4_3_u00_r16_network.node[36].content_store 	decision_ratio[36] 	0.041388056260088
scalar tree_4_3_u00_r16_network.node[37].core_layer 	interests[37] 	12149
scalar tree_4_3_u00_r16_network.node[37].core_layer 	data[37] 	8685
scalar tree_4_3_u00_r16_network.node[37].content_store 	p_hit[37] 	0.28512634784756
scalar tree_4_3_u00_r16_network.node[37].content_store 	hits[37] 	3464
scalar tree_4_3_u00_r16_network.node[37].content_store 	misses[37] 	8685
scalar tree_4_3_u00_r16_network.node[37].content_store 	decision_yes[37] 	359
scalar tree_4_3_u00_r16_network.node[37].content_store 	decision_no[37] 	8326
scalar tree_4_3_u00_r16_network.node[37].content_store 	decision_ratio[37] 	0.041335636154289
scalar tree_4_3_u00_r16_network.node[38].core_layer 	interests[38] 	12312
scalar tree_4_3_u00_r16_network.node[38].core_layer 	data[38] 	8868
scalar tree_4_3_u00_r16_network.node[38].content_store 	p_hit[38] 	0.27972709551657
scalar tree_4_3_u00_r16_network.node[38].content_store 	hits[38] 	3444
scalar tree_4_3_u00_r16_network.node[38].content_store 	misses[38] 	8868
scalar tree_4_3_u00_r16_network.node[38].content_store 	decision_yes[38] 	353
scalar tree_4_3_u00_r16_network.node[38].content_store 	decision_no[38] 	8515
scalar tree_4_3_u00_r16_network.node[38].content_store 	decision_ratio[38] 	0.039806044203879
scalar tree_4_3_u00_r16_network.node[39].core_layer 	interests[39] 	12276
scalar tree_4_3_u00_r16_network.node[39].core_layer 	data[39] 	8792
scalar tree_4_3_u00_r16_network.node[39].content_store 	p_hit[39] 	0.28380579993483
scalar tree_4_3_u00_r16_network.node[39].content_store 	hits[39] 	3484
scalar tree_4_3_u00_r16_network.node[39].content_store 	misses[39] 	8792
scalar tree_4_3_u00_r16_network.node[39].content_store 	decision_yes[39] 	372
scalar tree_4_3_u00_r16_network.node[39].content_store 	decision_no[39] 	8420
scalar tree_4_3_u00_r16_network.node[39].content_store 	decision_ratio[39] 	0.042311191992721
scalar tree_4_3_u00_r16_network.client[13] 	hdistance[13] 	2.7514890800794
scalar tree_4_3_u00_r16_network.client[13] 	downloads[13] 	12088
scalar tree_4_3_u00_r16_network.client[13] 	avg_time[13] 	0.004200100677
scalar tree_4_3_u00_r16_network.client[14] 	hdistance[14] 	2.7362536503963
scalar tree_4_3_u00_r16_network.client[14] 	downloads[14] 	11985
scalar tree_4_3_u00_r16_network.client[14] 	avg_time[14] 	0.004173547289
scalar tree_4_3_u00_r16_network.client[15] 	hdistance[15] 	2.7356545254796
scalar tree_4_3_u00_r16_network.client[15] 	downloads[15] 	11833
scalar tree_4_3_u00_r16_network.client[15] 	avg_time[15] 	0.0041710441
scalar tree_4_3_u00_r16_network.client[16] 	hdistance[16] 	2.743752055245
scalar tree_4_3_u00_r16_network.client[16] 	downloads[16] 	12164
scalar tree_4_3_u00_r16_network.client[16] 	avg_time[16] 	0.004180450225
scalar tree_4_3_u00_r16_network.client[17] 	hdistance[17] 	2.7505036937542
scalar tree_4_3_u00_r16_network.client[17] 	downloads[17] 	11912
scalar tree_4_3_u00_r16_network.client[17] 	avg_time[17] 	0.004195094418
scalar tree_4_3_u00_r16_network.client[18] 	hdistance[18] 	2.7838986514099
scalar tree_4_3_u00_r16_network.client[18] 	downloads[18] 	12235
scalar tree_4_3_u00_r16_network.client[18] 	avg_time[18] 	0.004241598915
scalar tree_4_3_u00_r16_network.client[19] 	hdistance[19] 	2.7418866655456
scalar tree_4_3_u00_r16_network.client[19] 	downloads[19] 	11894
scalar tree_4_3_u00_r16_network.client[19] 	avg_time[19] 	0.004182273803
scalar tree_4_3_u00_r16_network.client[20] 	hdistance[20] 	2.7288050314465
scalar tree_4_3_u00_r16_network.client[20] 	downloads[20] 	11925
scalar tree_4_3_u00_r16_network.client[20] 	avg_time[20] 	0.004161674153
scalar tree_4_3_u00_r16_network.client[21] 	hdistance[21] 	2.7584009269988
scalar tree_4_3_u00_r16_network.client[21] 	downloads[21] 	12082
scalar tree_4_3_u00_r16_network.client[21] 	avg_time[21] 	0.004207412957
scalar tree_4_3_u00_r16_network.client[22] 	hdistance[22] 	2.7485599799649
scalar tree_4_3_u00_r16_network.client[22] 	downloads[22] 	11979
scalar tree_4_3_u00_r16_network.client[22] 	avg_time[22] 	0.004194003191
scalar tree_4_3_u00_r16_network.client[23] 	hdistance[23] 	2.7292033912532
scalar tree_4_3_u00_r16_network.client[23] 	downloads[23] 	11913
scalar tree_4_3_u00_r16_network.client[23] 	avg_time[23] 	0.004163515882
scalar tree_4_3_u00_r16_network.client[24] 	hdistance[24] 	2.7052241875771
scalar tree_4_3_u00_r16_network.client[24] 	downloads[24] 	12155
scalar tree_4_3_u00_r16_network.client[24] 	avg_time[24] 	0.004122909349
scalar tree_4_3_u00_r16_network.client[25] 	hdistance[25] 	2.7597034815925
scalar tree_4_3_u00_r16_network.client[25] 	downloads[25] 	12006
scalar tree_4_3_u00_r16_network.client[25] 	avg_time[25] 	0.004202434995
scalar tree_4_3_u00_r16_network.client[26] 	hdistance[26] 	2.7824720959074
scalar tree_4_3_u00_r16_network.client[26] 	downloads[26] 	12095
scalar tree_4_3_u00_r16_network.client[26] 	avg_time[26] 	0.004241749798
scalar tree_4_3_u00_r16_network.client[27] 	hdistance[27] 	2.7606957381914
scalar tree_4_3_u00_r16_network.client[27] 	downloads[27] 	12131
scalar tree_4_3_u00_r16_network.client[27] 	avg_time[27] 	0.00420860877
scalar tree_4_3_u00_r16_network.client[28] 	hdistance[28] 	2.7446470391435
scalar tree_4_3_u00_r16_network.client[28] 	downloads[28] 	11956
scalar tree_4_3_u00_r16_network.client[28] 	avg_time[28] 	0.004186012406
scalar tree_4_3_u00_r16_network.client[29] 	hdistance[29] 	2.7564600016511
scalar tree_4_3_u00_r16_network.client[29] 	downloads[29] 	12113
scalar tree_4_3_u00_r16_network.client[29] 	avg_time[29] 	0.004201433441
scalar tree_4_3_u00_r16_network.client[30] 	hdistance[30] 	2.777712757064
scalar tree_4_3_u00_r16_network.client[30] 	downloads[30] 	11962
scalar tree_4_3_u00_r16_network.client[30] 	avg_time[30] 	0.004239421831
scalar tree_4_3_u00_r16_network.client[31] 	hdistance[31] 	2.7622423742786
scalar tree_4_3_u00_r16_network.client[31] 	downloads[31] 	12130
scalar tree_4_3_u00_r16_network.client[31] 	avg_time[31] 	0.004209724908
scalar tree_4_3_u00_r16_network.client[32] 	hdistance[32] 	2.7511590660035
scalar tree_4_3_u00_r16_network.client[32] 	downloads[32] 	11863
scalar tree_4_3_u00_r16_network.client[32] 	avg_time[32] 	0.004190842511
scalar tree_4_3_u00_r16_network.client[33] 	hdistance[33] 	2.772007705838
scalar tree_4_3_u00_r16_network.client[33] 	downloads[33] 	11939
scalar tree_4_3_u00_r16_network.client[33] 	avg_time[33] 	0.004227821789
scalar tree_4_3_u00_r16_network.client[34] 	hdistance[34] 	2.771242919027
scalar tree_4_3_u00_r16_network.client[34] 	downloads[34] 	12004
scalar tree_4_3_u00_r16_network.client[34] 	avg_time[34] 	0.004223089325
scalar tree_4_3_u00_r16_network.client[35] 	hdistance[35] 	2.7533367122825
scalar tree_4_3_u00_r16_network.client[35] 	downloads[35] 	11838
scalar tree_4_3_u00_r16_network.client[35] 	avg_time[35] 	0.004199404422
scalar tree_4_3_u00_r16_network.client[36] 	hdistance[36] 	2.7428619274889
scalar tree_4_3_u00_r16_network.client[36] 	downloads[36] 	11943
scalar tree_4_3_u00_r16_network.client[36] 	avg_time[36] 	0.004180309033
scalar tree_4_3_u00_r16_network.client[37] 	hdistance[37] 	2.7457343593175
scalar tree_4_3_u00_r16_network.client[37] 	downloads[37] 	11956
scalar tree_4_3_u00_r16_network.client[37] 	avg_time[37] 	0.004186848848
scalar tree_4_3_u00_r16_network.client[38] 	hdistance[38] 	2.7753802910053
scalar tree_4_3_u00_r16_network.client[38] 	downloads[38] 	12096
scalar tree_4_3_u00_r16_network.client[38] 	avg_time[38] 	0.004229990395
scalar tree_4_3_u00_r16_network.client[39] 	hdistance[39] 	2.7445751200928
scalar tree_4_3_u00_r16_network.client[39] 	downloads[39] 	12074
scalar tree_4_3_u00_r16_network.client[39] 	avg_time[39] 	0.004186347818
