version 2
run General-4-20160823-12:15:04-12979
attr D ffc0.05
attr F nrr
attr R lru
attr a 0.5
attr configname General
attr datetime 20160823-12:15:04
attr experiment General
attr inifile hw5115/scenario_B/bus.ini
attr iterationvars "$net=bus, $rep=0, $a=0.5, $F=nrr, $D=ffc0.05, $R=lru, $window=60, $variance=0.05, $mytime=600, $test=test"
attr iterationvars2 "$net=bus, $rep=0, $a=0.5, $F=nrr, $D=ffc0.05, $R=lru, $window=60, $variance=0.05, $mytime=600, $test=test, $repetition=0"
attr measurement "$net=bus, $rep=0, $a=0.5, $F=nrr, $D=ffc0.05, $R=lru, $window=60, $variance=0.05, $mytime=600, $test=test"
attr mytime 600
attr net bus
attr network networks.${net=bus}_network
attr processid 12979
attr rep 0
attr repetition 0
attr replication #0
attr resultdir results
attr runnumber 4
attr seedset 0
attr test test
attr variance 0.05
attr window 60

scalar . 	a 	0.5
scalar . 	mytime 	600
scalar . 	rep 	0
scalar . 	variance 	0.05
scalar . 	window 	60
scalar bus_network.content_distribution 	repo-0 	9
scalar bus_network.content_distribution 	client-0 	5
scalar bus_network.content_distribution 	client-1 	8
scalar bus_network.content_distribution 	client-2 	9
scalar bus_network.content_distribution 	client-3 	0
scalar bus_network.content_distribution 	client-4 	1
scalar bus_network.content_distribution 	client-5 	7
scalar bus_network.content_distribution 	client-6 	6
scalar bus_network.content_distribution 	client-7 	2
scalar bus_network.content_distribution 	client-8 	4
scalar bus_network.content_distribution 	client-9 	3
scalar bus_network.content_distribution 	repo-0_card 	100000
scalar bus_network.content_distribution 	repo-0_price 	0
scalar bus_network.statistics 	stabilization_time 	8129.4
scalar bus_network.statistics 	p_hit 	0.0093184896468786
scalar bus_network.statistics 	interests 	64616.6
scalar bus_network.statistics 	data 	52615.5
scalar bus_network.statistics 	hdistance 	5.3269877840809
scalar bus_network.statistics 	avg_time 	0.008743220781
scalar bus_network.statistics 	downloads 	119999
scalar bus_network.statistics 	total_cost 	0
scalar bus_network.statistics 	total_replicas 	100000
scalar bus_network.statistics 	inner_hit 	0.044833706947558
scalar bus_network.node[0].core_layer 	interests[0] 	12163
scalar bus_network.node[0].core_layer 	data[0] 	12013
scalar bus_network.node[0].core_layer 	repo_int[0] 	114619
scalar bus_network.node[0].content_store 	p_hit[0] 	0.012250267203815
scalar bus_network.node[0].content_store 	hits[0] 	149
scalar bus_network.node[0].content_store 	misses[0] 	12014
scalar bus_network.node[0].content_store 	decision_yes[0] 	3
scalar bus_network.node[0].content_store 	decision_no[0] 	12010
scalar bus_network.node[0].content_store 	decision_ratio[0] 	0.00024972945975194
scalar bus_network.node[1].core_layer 	interests[1] 	24294
scalar bus_network.node[1].core_layer 	data[1] 	24061
scalar bus_network.node[1].content_store 	p_hit[1] 	0.0094673581954392
scalar bus_network.node[1].content_store 	hits[1] 	230
scalar bus_network.node[1].content_store 	misses[1] 	24064
scalar bus_network.node[1].content_store 	decision_yes[1] 	4
scalar bus_network.node[1].content_store 	decision_no[1] 	24057
scalar bus_network.node[1].content_store 	decision_ratio[1] 	0.00016624412950418
scalar bus_network.node[2].core_layer 	interests[2] 	36378
scalar bus_network.node[2].core_layer 	data[2] 	35940
scalar bus_network.node[2].content_store 	p_hit[2] 	0.011985265820001
scalar bus_network.node[2].content_store 	hits[2] 	436
scalar bus_network.node[2].content_store 	misses[2] 	35942
scalar bus_network.node[2].content_store 	decision_yes[2] 	1
scalar bus_network.node[2].content_store 	decision_no[2] 	35939
scalar bus_network.node[2].content_store 	decision_ratio[2] 	2.7824151363383e-05
scalar bus_network.node[3].core_layer 	interests[3] 	48087
scalar bus_network.node[3].core_layer 	data[3] 	47495
scalar bus_network.node[3].content_store 	p_hit[3] 	0.012248632686589
scalar bus_network.node[3].content_store 	hits[3] 	589
scalar bus_network.node[3].content_store 	misses[3] 	47498
scalar bus_network.node[3].content_store 	decision_yes[3] 	4
scalar bus_network.node[3].content_store 	decision_no[3] 	47491
scalar bus_network.node[3].content_store 	decision_ratio[3] 	8.4219391514896e-05
scalar bus_network.node[4].core_layer 	interests[4] 	59624
scalar bus_network.node[4].core_layer 	data[4] 	58971
scalar bus_network.node[4].content_store 	p_hit[4] 	0.010901650342144
scalar bus_network.node[4].content_store 	hits[4] 	650
scalar bus_network.node[4].content_store 	misses[4] 	58974
scalar bus_network.node[4].content_store 	decision_yes[4] 	7
scalar bus_network.node[4].content_store 	decision_no[4] 	58964
scalar bus_network.node[4].content_store 	decision_ratio[4] 	0.00011870241305048
scalar bus_network.node[5].core_layer 	interests[5] 	70759
scalar bus_network.node[5].core_layer 	data[5] 	70304
scalar bus_network.node[5].content_store 	p_hit[5] 	0.0064161449426928
scalar bus_network.node[5].content_store 	hits[5] 	454
scalar bus_network.node[5].content_store 	misses[5] 	70305
scalar bus_network.node[5].content_store 	decision_yes[5] 	10
scalar bus_network.node[5].content_store 	decision_no[5] 	70294
scalar bus_network.node[5].content_store 	decision_ratio[5] 	0.00014223941738735
scalar bus_network.node[6].core_layer 	interests[6] 	82209
scalar bus_network.node[6].core_layer 	data[6] 	81319
scalar bus_network.node[6].content_store 	p_hit[6] 	0.010813901154375
scalar bus_network.node[6].content_store 	hits[6] 	889
scalar bus_network.node[6].content_store 	misses[6] 	81320
scalar bus_network.node[6].content_store 	decision_yes[6] 	5
scalar bus_network.node[6].content_store 	decision_no[6] 	81314
scalar bus_network.node[6].content_store 	decision_ratio[6] 	6.1486245526876e-05
scalar bus_network.node[7].core_layer 	interests[7] 	93181
scalar bus_network.node[7].core_layer 	data[7] 	92555
scalar bus_network.node[7].content_store 	p_hit[7] 	0.0066966441656561
scalar bus_network.node[7].content_store 	hits[7] 	624
scalar bus_network.node[7].content_store 	misses[7] 	92557
scalar bus_network.node[7].content_store 	decision_yes[7] 	7
scalar bus_network.node[7].content_store 	decision_no[7] 	92548
scalar bus_network.node[7].content_store 	decision_ratio[7] 	7.5630706066663e-05
scalar bus_network.node[8].core_layer 	interests[8] 	104213
scalar bus_network.node[8].core_layer 	data[8] 	103497
scalar bus_network.node[8].content_store 	p_hit[8] 	0.0068609482502183
scalar bus_network.node[8].content_store 	hits[8] 	715
scalar bus_network.node[8].content_store 	misses[8] 	103498
scalar bus_network.node[8].content_store 	decision_yes[8] 	9
scalar bus_network.node[8].content_store 	decision_no[8] 	103488
scalar bus_network.node[8].content_store 	decision_ratio[8] 	8.6959042291081e-05
scalar bus_network.node[9].core_layer 	interests[9] 	115258
scalar bus_network.node[9].core_layer 	repo_load[9] 	114619
scalar bus_network.node[9].core_layer 	data[9] 	0
scalar bus_network.node[9].content_store 	p_hit[9] 	0.0055440837078554
scalar bus_network.node[9].content_store 	hits[9] 	639
scalar bus_network.node[9].content_store 	misses[9] 	114619
scalar bus_network.node[9].content_store 	decision_yes[9] 	11
scalar bus_network.node[9].content_store 	decision_no[9] 	114608
scalar bus_network.node[9].content_store 	decision_ratio[9] 	9.5970127116796e-05
scalar bus_network.client[0] 	hdistance[0] 	9.6897149938042
scalar bus_network.client[0] 	downloads[0] 	12105
scalar bus_network.client[0] 	avg_time[0] 	0.01748325438
scalar bus_network.client[1] 	hdistance[1] 	8.7254385242526
scalar bus_network.client[1] 	downloads[1] 	12143
scalar bus_network.client[1] 	avg_time[1] 	0.015549767321
scalar bus_network.client[2] 	hdistance[2] 	7.7324257425743
scalar bus_network.client[2] 	downloads[2] 	12120
scalar bus_network.client[2] 	avg_time[2] 	0.013569468921
scalar bus_network.client[3] 	hdistance[3] 	6.7675390918973
scalar bus_network.client[3] 	downloads[3] 	11959
scalar bus_network.client[3] 	avg_time[3] 	0.011632658762
scalar bus_network.client[4] 	hdistance[4] 	5.7839166666667
scalar bus_network.client[4] 	downloads[4] 	12000
scalar bus_network.client[4] 	avg_time[4] 	0.009674330334
scalar bus_network.client[5] 	hdistance[5] 	4.8315083609201
scalar bus_network.client[5] 	downloads[5] 	11781
scalar bus_network.client[5] 	avg_time[5] 	0.007764533175
scalar bus_network.client[6] 	hdistance[6] 	3.8677173275212
scalar bus_network.client[6] 	downloads[6] 	11929
scalar bus_network.client[6] 	avg_time[6] 	0.005836697496
scalar bus_network.client[7] 	hdistance[7] 	2.9166319646873
scalar bus_network.client[7] 	downloads[7] 	12007
scalar bus_network.client[7] 	avg_time[7] 	0.003926495858
scalar bus_network.client[8] 	hdistance[8] 	1.9650320539505
scalar bus_network.client[8] 	downloads[8] 	12011
scalar bus_network.client[8] 	avg_time[8] 	0.001995001569
scalar bus_network.client[9] 	hdistance[9] 	0.98995311453449
scalar bus_network.client[9] 	downloads[9] 	11944
scalar bus_network.client[9] 	avg_time[9] 	0
