version 2
run General-46-20160820-14:28:20-2644
attr a 0.9
attr cd lce
attr configname General
attr cr lru
attr datetime 20160820-14:28:20
attr experiment General
attr fsize 1
attr inifile hw5115/scenario_A/SPR-LCE.ini
attr iterationvars "$name=tree_4_3, $un=02, $rep=7, $cd=lce, $cr=lru, $fsize=1, $a=0.9, $sl=spr, $ttl=1000, $variance=0.05"
attr iterationvars2 "$name=tree_4_3, $un=02, $rep=7, $cd=lce, $cr=lru, $fsize=1, $a=0.9, $sl=spr, $ttl=1000, $variance=0.05, $repetition=0"
attr measurement "$name=tree_4_3, $un=02, $rep=7, $cd=lce, $cr=lru, $fsize=1, $a=0.9, $sl=spr, $ttl=1000, $variance=0.05"
attr name tree_4_3
attr network networks.${name}_u${un}_r${rep}_network
attr processid 2644
attr rep 7
attr repetition 0
attr replication #0
attr resultdir results
attr runnumber 46
attr seedset 7
attr sl spr
attr ttl 1000
attr un 02
attr variance 0.05

scalar . 	a 	0.9
scalar . 	fsize 	1
scalar . 	rep 	7
scalar . 	ttl 	1000
scalar . 	un 	02
scalar . 	variance 	0.05
scalar tree_4_3_u02_r7_network.content_distribution 	repo-0 	0
scalar tree_4_3_u02_r7_network.content_distribution 	client-0 	13
scalar tree_4_3_u02_r7_network.content_distribution 	client-1 	14
scalar tree_4_3_u02_r7_network.content_distribution 	client-2 	15
scalar tree_4_3_u02_r7_network.content_distribution 	client-3 	16
scalar tree_4_3_u02_r7_network.content_distribution 	client-4 	17
scalar tree_4_3_u02_r7_network.content_distribution 	client-5 	18
scalar tree_4_3_u02_r7_network.content_distribution 	client-6 	19
scalar tree_4_3_u02_r7_network.content_distribution 	client-7 	20
scalar tree_4_3_u02_r7_network.content_distribution 	client-8 	21
scalar tree_4_3_u02_r7_network.content_distribution 	client-9 	22
scalar tree_4_3_u02_r7_network.content_distribution 	client-10 	23
scalar tree_4_3_u02_r7_network.content_distribution 	client-11 	24
scalar tree_4_3_u02_r7_network.content_distribution 	client-12 	25
scalar tree_4_3_u02_r7_network.content_distribution 	client-13 	26
scalar tree_4_3_u02_r7_network.content_distribution 	client-14 	27
scalar tree_4_3_u02_r7_network.content_distribution 	client-15 	28
scalar tree_4_3_u02_r7_network.content_distribution 	client-16 	29
scalar tree_4_3_u02_r7_network.content_distribution 	client-17 	30
scalar tree_4_3_u02_r7_network.content_distribution 	client-18 	31
scalar tree_4_3_u02_r7_network.content_distribution 	client-19 	32
scalar tree_4_3_u02_r7_network.content_distribution 	client-20 	33
scalar tree_4_3_u02_r7_network.content_distribution 	client-21 	34
scalar tree_4_3_u02_r7_network.content_distribution 	client-22 	35
scalar tree_4_3_u02_r7_network.content_distribution 	client-23 	36
scalar tree_4_3_u02_r7_network.content_distribution 	client-24 	37
scalar tree_4_3_u02_r7_network.content_distribution 	client-25 	38
scalar tree_4_3_u02_r7_network.content_distribution 	client-26 	39
scalar tree_4_3_u02_r7_network.content_distribution 	repo-0_card 	100000
scalar tree_4_3_u02_r7_network.content_distribution 	repo-0_price 	0
scalar tree_4_3_u02_r7_network.statistics 	stabilization_time 	556.4
scalar tree_4_3_u02_r7_network.statistics 	p_hit 	0.11260078591929
scalar tree_4_3_u02_r7_network.statistics 	interests 	28003.1
scalar tree_4_3_u02_r7_network.statistics 	data 	19933.7
scalar tree_4_3_u02_r7_network.statistics 	hdistance 	3.2585220586225
scalar tree_4_3_u02_r7_network.statistics 	avg_time 	0.004940858093
scalar tree_4_3_u02_r7_network.statistics 	downloads 	322752
scalar tree_4_3_u02_r7_network.statistics 	total_cost 	0
scalar tree_4_3_u02_r7_network.statistics 	total_replicas 	100000
scalar tree_4_3_u02_r7_network.statistics 	inner_hit 	0.21211952210986
scalar tree_4_3_u02_r7_network.node[0].core_layer 	interests[0] 	259248
scalar tree_4_3_u02_r7_network.node[0].core_layer 	repo_load[0] 	254290
scalar tree_4_3_u02_r7_network.node[0].core_layer 	data[0] 	0
scalar tree_4_3_u02_r7_network.node[0].core_layer 	repo_int[0] 	254290
scalar tree_4_3_u02_r7_network.node[0].content_store 	p_hit[0] 	0.019124544837376
scalar tree_4_3_u02_r7_network.node[0].content_store 	hits[0] 	4958
scalar tree_4_3_u02_r7_network.node[0].content_store 	misses[0] 	254290
scalar tree_4_3_u02_r7_network.node[0].content_store 	decision_yes[0] 	254290
scalar tree_4_3_u02_r7_network.node[0].content_store 	decision_no[0] 	0
scalar tree_4_3_u02_r7_network.node[0].content_store 	decision_ratio[0] 	1
scalar tree_4_3_u02_r7_network.node[1].core_layer 	interests[1] 	88352
scalar tree_4_3_u02_r7_network.node[1].core_layer 	data[1] 	86388
scalar tree_4_3_u02_r7_network.node[1].content_store 	p_hit[1] 	0.022172672944585
scalar tree_4_3_u02_r7_network.node[1].content_store 	hits[1] 	1959
scalar tree_4_3_u02_r7_network.node[1].content_store 	misses[1] 	86393
scalar tree_4_3_u02_r7_network.node[1].content_store 	decision_yes[1] 	86388
scalar tree_4_3_u02_r7_network.node[1].content_store 	decision_no[1] 	0
scalar tree_4_3_u02_r7_network.node[1].content_store 	decision_ratio[1] 	1
scalar tree_4_3_u02_r7_network.node[2].core_layer 	interests[2] 	88352
scalar tree_4_3_u02_r7_network.node[2].core_layer 	data[2] 	86382
scalar tree_4_3_u02_r7_network.node[2].content_store 	p_hit[2] 	0.022274538210793
scalar tree_4_3_u02_r7_network.node[2].content_store 	hits[2] 	1968
scalar tree_4_3_u02_r7_network.node[2].content_store 	misses[2] 	86384
scalar tree_4_3_u02_r7_network.node[2].content_store 	decision_yes[2] 	86382
scalar tree_4_3_u02_r7_network.node[2].content_store 	decision_no[2] 	0
scalar tree_4_3_u02_r7_network.node[2].content_store 	decision_ratio[2] 	1
scalar tree_4_3_u02_r7_network.node[3].core_layer 	interests[3] 	88498
scalar tree_4_3_u02_r7_network.node[3].core_layer 	data[3] 	86478
scalar tree_4_3_u02_r7_network.node[3].content_store 	p_hit[3] 	0.022780175823182
scalar tree_4_3_u02_r7_network.node[3].content_store 	hits[3] 	2016
scalar tree_4_3_u02_r7_network.node[3].content_store 	misses[3] 	86482
scalar tree_4_3_u02_r7_network.node[3].content_store 	decision_yes[3] 	86478
scalar tree_4_3_u02_r7_network.node[3].content_store 	decision_no[3] 	0
scalar tree_4_3_u02_r7_network.node[3].content_store 	decision_ratio[3] 	1
scalar tree_4_3_u02_r7_network.node[4].core_layer 	interests[4] 	30287
scalar tree_4_3_u02_r7_network.node[4].core_layer 	data[4] 	29453
scalar tree_4_3_u02_r7_network.node[4].content_store 	p_hit[4] 	0.027503549377621
scalar tree_4_3_u02_r7_network.node[4].content_store 	hits[4] 	833
scalar tree_4_3_u02_r7_network.node[4].content_store 	misses[4] 	29454
scalar tree_4_3_u02_r7_network.node[4].content_store 	decision_yes[4] 	29453
scalar tree_4_3_u02_r7_network.node[4].content_store 	decision_no[4] 	0
scalar tree_4_3_u02_r7_network.node[4].content_store 	decision_ratio[4] 	1
scalar tree_4_3_u02_r7_network.node[5].core_layer 	interests[5] 	40402
scalar tree_4_3_u02_r7_network.node[5].core_layer 	data[5] 	39173
scalar tree_4_3_u02_r7_network.node[5].content_store 	p_hit[5] 	0.030369783674076
scalar tree_4_3_u02_r7_network.node[5].content_store 	hits[5] 	1227
scalar tree_4_3_u02_r7_network.node[5].content_store 	misses[5] 	39175
scalar tree_4_3_u02_r7_network.node[5].content_store 	decision_yes[5] 	39173
scalar tree_4_3_u02_r7_network.node[5].content_store 	decision_no[5] 	0
scalar tree_4_3_u02_r7_network.node[5].content_store 	decision_ratio[5] 	1
scalar tree_4_3_u02_r7_network.node[6].core_layer 	interests[6] 	20168
scalar tree_4_3_u02_r7_network.node[6].core_layer 	data[6] 	19726
scalar tree_4_3_u02_r7_network.node[6].content_store 	p_hit[6] 	0.021915906386355
scalar tree_4_3_u02_r7_network.node[6].content_store 	hits[6] 	442
scalar tree_4_3_u02_r7_network.node[6].content_store 	misses[6] 	19726
scalar tree_4_3_u02_r7_network.node[6].content_store 	decision_yes[6] 	19726
scalar tree_4_3_u02_r7_network.node[6].content_store 	decision_no[6] 	0
scalar tree_4_3_u02_r7_network.node[6].content_store 	decision_ratio[6] 	1
scalar tree_4_3_u02_r7_network.node[7].core_layer 	interests[7] 	40635
scalar tree_4_3_u02_r7_network.node[7].core_layer 	data[7] 	39397
scalar tree_4_3_u02_r7_network.node[7].content_store 	p_hit[7] 	0.030367909437677
scalar tree_4_3_u02_r7_network.node[7].content_store 	hits[7] 	1234
scalar tree_4_3_u02_r7_network.node[7].content_store 	misses[7] 	39401
scalar tree_4_3_u02_r7_network.node[7].content_store 	decision_yes[7] 	39397
scalar tree_4_3_u02_r7_network.node[7].content_store 	decision_no[7] 	0
scalar tree_4_3_u02_r7_network.node[7].content_store 	decision_ratio[7] 	1
scalar tree_4_3_u02_r7_network.node[8].core_layer 	interests[8] 	30140
scalar tree_4_3_u02_r7_network.node[8].core_layer 	data[8] 	29258
scalar tree_4_3_u02_r7_network.node[8].content_store 	p_hit[8] 	0.029230258792303
scalar tree_4_3_u02_r7_network.node[8].content_store 	hits[8] 	881
scalar tree_4_3_u02_r7_network.node[8].content_store 	misses[8] 	29259
scalar tree_4_3_u02_r7_network.node[8].content_store 	decision_yes[8] 	29258
scalar tree_4_3_u02_r7_network.node[8].content_store 	decision_no[8] 	0
scalar tree_4_3_u02_r7_network.node[8].content_store 	decision_ratio[8] 	1
scalar tree_4_3_u02_r7_network.node[9].core_layer 	interests[9] 	20132
scalar tree_4_3_u02_r7_network.node[9].core_layer 	data[9] 	19697
scalar tree_4_3_u02_r7_network.node[9].content_store 	p_hit[9] 	0.021458374726803
scalar tree_4_3_u02_r7_network.node[9].content_store 	hits[9] 	432
scalar tree_4_3_u02_r7_network.node[9].content_store 	misses[9] 	19700
scalar tree_4_3_u02_r7_network.node[9].content_store 	decision_yes[9] 	19697
scalar tree_4_3_u02_r7_network.node[9].content_store 	decision_no[9] 	0
scalar tree_4_3_u02_r7_network.node[9].content_store 	decision_ratio[9] 	1
scalar tree_4_3_u02_r7_network.node[10].core_layer 	interests[10] 	30195
scalar tree_4_3_u02_r7_network.node[10].core_layer 	data[10] 	29287
scalar tree_4_3_u02_r7_network.node[10].content_store 	p_hit[10] 	0.030104321907601
scalar tree_4_3_u02_r7_network.node[10].content_store 	hits[10] 	909
scalar tree_4_3_u02_r7_network.node[10].content_store 	misses[10] 	29286
scalar tree_4_3_u02_r7_network.node[10].content_store 	decision_yes[10] 	29287
scalar tree_4_3_u02_r7_network.node[10].content_store 	decision_no[10] 	0
scalar tree_4_3_u02_r7_network.node[10].content_store 	decision_ratio[10] 	1
scalar tree_4_3_u02_r7_network.node[11].core_layer 	interests[11] 	30407
scalar tree_4_3_u02_r7_network.node[11].core_layer 	data[11] 	29569
scalar tree_4_3_u02_r7_network.node[11].content_store 	p_hit[11] 	0.027559443549183
scalar tree_4_3_u02_r7_network.node[11].content_store 	hits[11] 	838
scalar tree_4_3_u02_r7_network.node[11].content_store 	misses[11] 	29569
scalar tree_4_3_u02_r7_network.node[11].content_store 	decision_yes[11] 	29569
scalar tree_4_3_u02_r7_network.node[11].content_store 	decision_no[11] 	0
scalar tree_4_3_u02_r7_network.node[11].content_store 	decision_ratio[11] 	1
scalar tree_4_3_u02_r7_network.node[12].core_layer 	interests[12] 	30532
scalar tree_4_3_u02_r7_network.node[12].core_layer 	data[12] 	29643
scalar tree_4_3_u02_r7_network.node[12].content_store 	p_hit[12] 	0.02908423948644
scalar tree_4_3_u02_r7_network.node[12].content_store 	hits[12] 	888
scalar tree_4_3_u02_r7_network.node[12].content_store 	misses[12] 	29644
scalar tree_4_3_u02_r7_network.node[12].content_store 	decision_yes[12] 	29643
scalar tree_4_3_u02_r7_network.node[12].content_store 	decision_no[12] 	0
scalar tree_4_3_u02_r7_network.node[12].content_store 	decision_ratio[12] 	1
scalar tree_4_3_u02_r7_network.node[13].core_layer 	interests[13] 	11896
scalar tree_4_3_u02_r7_network.node[13].core_layer 	data[13] 	10125
scalar tree_4_3_u02_r7_network.node[13].content_store 	p_hit[13] 	0.14870544720915
scalar tree_4_3_u02_r7_network.node[13].content_store 	hits[13] 	1769
scalar tree_4_3_u02_r7_network.node[13].content_store 	misses[13] 	10127
scalar tree_4_3_u02_r7_network.node[13].content_store 	decision_yes[13] 	10125
scalar tree_4_3_u02_r7_network.node[13].content_store 	decision_no[13] 	0
scalar tree_4_3_u02_r7_network.node[13].content_store 	decision_ratio[13] 	1
scalar tree_4_3_u02_r7_network.node[14].core_layer 	interests[14] 	11882
scalar tree_4_3_u02_r7_network.node[14].core_layer 	data[14] 	10108
scalar tree_4_3_u02_r7_network.node[14].content_store 	p_hit[14] 	0.14904898165292
scalar tree_4_3_u02_r7_network.node[14].content_store 	hits[14] 	1771
scalar tree_4_3_u02_r7_network.node[14].content_store 	misses[14] 	10111
scalar tree_4_3_u02_r7_network.node[14].content_store 	decision_yes[14] 	10108
scalar tree_4_3_u02_r7_network.node[14].content_store 	decision_no[14] 	0
scalar tree_4_3_u02_r7_network.node[14].content_store 	decision_ratio[14] 	1
scalar tree_4_3_u02_r7_network.node[15].core_layer 	interests[15] 	11852
scalar tree_4_3_u02_r7_network.node[15].core_layer 	data[15] 	10053
scalar tree_4_3_u02_r7_network.node[15].content_store 	p_hit[15] 	0.1517887276409
scalar tree_4_3_u02_r7_network.node[15].content_store 	hits[15] 	1799
scalar tree_4_3_u02_r7_network.node[15].content_store 	misses[15] 	10053
scalar tree_4_3_u02_r7_network.node[15].content_store 	decision_yes[15] 	10053
scalar tree_4_3_u02_r7_network.node[15].content_store 	decision_no[15] 	0
scalar tree_4_3_u02_r7_network.node[15].content_store 	decision_ratio[15] 	1
scalar tree_4_3_u02_r7_network.node[16].core_layer 	interests[16] 	12033
scalar tree_4_3_u02_r7_network.node[16].core_layer 	data[16] 	10110
scalar tree_4_3_u02_r7_network.node[16].content_store 	p_hit[16] 	0.15981052106707
scalar tree_4_3_u02_r7_network.node[16].content_store 	hits[16] 	1923
scalar tree_4_3_u02_r7_network.node[16].content_store 	misses[16] 	10110
scalar tree_4_3_u02_r7_network.node[16].content_store 	decision_yes[16] 	10110
scalar tree_4_3_u02_r7_network.node[16].content_store 	decision_no[16] 	0
scalar tree_4_3_u02_r7_network.node[16].content_store 	decision_ratio[16] 	1
scalar tree_4_3_u02_r7_network.node[17].core_layer 	interests[17] 	12006
scalar tree_4_3_u02_r7_network.node[17].core_layer 	data[17] 	10113
scalar tree_4_3_u02_r7_network.node[17].content_store 	p_hit[17] 	0.15742128935532
scalar tree_4_3_u02_r7_network.node[17].content_store 	hits[17] 	1890
scalar tree_4_3_u02_r7_network.node[17].content_store 	misses[17] 	10116
scalar tree_4_3_u02_r7_network.node[17].content_store 	decision_yes[17] 	10113
scalar tree_4_3_u02_r7_network.node[17].content_store 	decision_no[17] 	0
scalar tree_4_3_u02_r7_network.node[17].content_store 	decision_ratio[17] 	1
scalar tree_4_3_u02_r7_network.node[18].core_layer 	interests[18] 	11810
scalar tree_4_3_u02_r7_network.node[18].core_layer 	data[18] 	9970
scalar tree_4_3_u02_r7_network.node[18].content_store 	p_hit[18] 	0.15571549534293
scalar tree_4_3_u02_r7_network.node[18].content_store 	hits[18] 	1839
scalar tree_4_3_u02_r7_network.node[18].content_store 	misses[18] 	9971
scalar tree_4_3_u02_r7_network.node[18].content_store 	decision_yes[18] 	9970
scalar tree_4_3_u02_r7_network.node[18].content_store 	decision_no[18] 	0
scalar tree_4_3_u02_r7_network.node[18].content_store 	decision_ratio[18] 	1
scalar tree_4_3_u02_r7_network.node[19].core_layer 	interests[19] 	11763
scalar tree_4_3_u02_r7_network.node[19].core_layer 	data[19] 	10007
scalar tree_4_3_u02_r7_network.node[19].content_store 	p_hit[19] 	0.14919663351186
scalar tree_4_3_u02_r7_network.node[19].content_store 	hits[19] 	1755
scalar tree_4_3_u02_r7_network.node[19].content_store 	misses[19] 	10008
scalar tree_4_3_u02_r7_network.node[19].content_store 	decision_yes[19] 	10007
scalar tree_4_3_u02_r7_network.node[19].content_store 	decision_no[19] 	0
scalar tree_4_3_u02_r7_network.node[19].content_store 	decision_ratio[19] 	1
scalar tree_4_3_u02_r7_network.node[20].core_layer 	interests[20] 	12096
scalar tree_4_3_u02_r7_network.node[20].core_layer 	data[20] 	10209
scalar tree_4_3_u02_r7_network.node[20].content_store 	p_hit[20] 	0.15591931216931
scalar tree_4_3_u02_r7_network.node[20].content_store 	hits[20] 	1886
scalar tree_4_3_u02_r7_network.node[20].content_store 	misses[20] 	10210
scalar tree_4_3_u02_r7_network.node[20].content_store 	decision_yes[20] 	10209
scalar tree_4_3_u02_r7_network.node[20].content_store 	decision_no[20] 	0
scalar tree_4_3_u02_r7_network.node[20].content_store 	decision_ratio[20] 	1
scalar tree_4_3_u02_r7_network.node[21].core_layer 	interests[21] 	12088
scalar tree_4_3_u02_r7_network.node[21].core_layer 	data[21] 	10161
scalar tree_4_3_u02_r7_network.node[21].content_store 	p_hit[21] 	0.15941429516876
scalar tree_4_3_u02_r7_network.node[21].content_store 	hits[21] 	1927
scalar tree_4_3_u02_r7_network.node[21].content_store 	misses[21] 	10161
scalar tree_4_3_u02_r7_network.node[21].content_store 	decision_yes[21] 	10161
scalar tree_4_3_u02_r7_network.node[21].content_store 	decision_no[21] 	0
scalar tree_4_3_u02_r7_network.node[21].content_store 	decision_ratio[21] 	1
scalar tree_4_3_u02_r7_network.node[22].core_layer 	interests[22] 	11998
scalar tree_4_3_u02_r7_network.node[22].core_layer 	data[22] 	10108
scalar tree_4_3_u02_r7_network.node[22].content_store 	p_hit[22] 	0.15752625437573
scalar tree_4_3_u02_r7_network.node[22].content_store 	hits[22] 	1890
scalar tree_4_3_u02_r7_network.node[22].content_store 	misses[22] 	10108
scalar tree_4_3_u02_r7_network.node[22].content_store 	decision_yes[22] 	10108
scalar tree_4_3_u02_r7_network.node[22].content_store 	decision_no[22] 	0
scalar tree_4_3_u02_r7_network.node[22].content_store 	decision_ratio[22] 	1
scalar tree_4_3_u02_r7_network.node[23].core_layer 	interests[23] 	12007
scalar tree_4_3_u02_r7_network.node[23].core_layer 	data[23] 	10208
scalar tree_4_3_u02_r7_network.node[23].content_store 	p_hit[23] 	0.14966269676022
scalar tree_4_3_u02_r7_network.node[23].content_store 	hits[23] 	1797
scalar tree_4_3_u02_r7_network.node[23].content_store 	misses[23] 	10210
scalar tree_4_3_u02_r7_network.node[23].content_store 	decision_yes[23] 	10208
scalar tree_4_3_u02_r7_network.node[23].content_store 	decision_no[23] 	0
scalar tree_4_3_u02_r7_network.node[23].content_store 	decision_ratio[23] 	1
scalar tree_4_3_u02_r7_network.node[24].core_layer 	interests[24] 	11993
scalar tree_4_3_u02_r7_network.node[24].core_layer 	data[24] 	10166
scalar tree_4_3_u02_r7_network.node[24].content_store 	p_hit[24] 	0.15233886433753
scalar tree_4_3_u02_r7_network.node[24].content_store 	hits[24] 	1827
scalar tree_4_3_u02_r7_network.node[24].content_store 	misses[24] 	10166
scalar tree_4_3_u02_r7_network.node[24].content_store 	decision_yes[24] 	10166
scalar tree_4_3_u02_r7_network.node[24].content_store 	decision_no[24] 	0
scalar tree_4_3_u02_r7_network.node[24].content_store 	decision_ratio[24] 	1
scalar tree_4_3_u02_r7_network.node[25].core_layer 	interests[25] 	11895
scalar tree_4_3_u02_r7_network.node[25].core_layer 	data[25] 	10035
scalar tree_4_3_u02_r7_network.node[25].content_store 	p_hit[25] 	0.15636822194199
scalar tree_4_3_u02_r7_network.node[25].content_store 	hits[25] 	1860
scalar tree_4_3_u02_r7_network.node[25].content_store 	misses[25] 	10035
scalar tree_4_3_u02_r7_network.node[25].content_store 	decision_yes[25] 	10035
scalar tree_4_3_u02_r7_network.node[25].content_store 	decision_no[25] 	0
scalar tree_4_3_u02_r7_network.node[25].content_store 	decision_ratio[25] 	1
scalar tree_4_3_u02_r7_network.node[26].core_layer 	interests[26] 	11914
scalar tree_4_3_u02_r7_network.node[26].core_layer 	data[26] 	10045
scalar tree_4_3_u02_r7_network.node[26].content_store 	p_hit[26] 	0.15687426556992
scalar tree_4_3_u02_r7_network.node[26].content_store 	hits[26] 	1869
scalar tree_4_3_u02_r7_network.node[26].content_store 	misses[26] 	10045
scalar tree_4_3_u02_r7_network.node[26].content_store 	decision_yes[26] 	10045
scalar tree_4_3_u02_r7_network.node[26].content_store 	decision_no[26] 	0
scalar tree_4_3_u02_r7_network.node[26].content_store 	decision_ratio[26] 	1
scalar tree_4_3_u02_r7_network.node[27].core_layer 	interests[27] 	11934
scalar tree_4_3_u02_r7_network.node[27].core_layer 	data[27] 	10060
scalar tree_4_3_u02_r7_network.node[27].content_store 	p_hit[27] 	0.15703033350092
scalar tree_4_3_u02_r7_network.node[27].content_store 	hits[27] 	1874
scalar tree_4_3_u02_r7_network.node[27].content_store 	misses[27] 	10060
scalar tree_4_3_u02_r7_network.node[27].content_store 	decision_yes[27] 	10060
scalar tree_4_3_u02_r7_network.node[27].content_store 	decision_no[27] 	0
scalar tree_4_3_u02_r7_network.node[27].content_store 	decision_ratio[27] 	1
scalar tree_4_3_u02_r7_network.node[28].core_layer 	interests[28] 	12012
scalar tree_4_3_u02_r7_network.node[28].core_layer 	data[28] 	10153
scalar tree_4_3_u02_r7_network.node[28].content_store 	p_hit[28] 	0.1545954045954
scalar tree_4_3_u02_r7_network.node[28].content_store 	hits[28] 	1857
scalar tree_4_3_u02_r7_network.node[28].content_store 	misses[28] 	10155
scalar tree_4_3_u02_r7_network.node[28].content_store 	decision_yes[28] 	10153
scalar tree_4_3_u02_r7_network.node[28].content_store 	decision_no[28] 	0
scalar tree_4_3_u02_r7_network.node[28].content_store 	decision_ratio[28] 	1
scalar tree_4_3_u02_r7_network.node[29].core_layer 	interests[29] 	11924
scalar tree_4_3_u02_r7_network.node[29].core_layer 	data[29] 	10075
scalar tree_4_3_u02_r7_network.node[29].content_store 	p_hit[29] 	0.1549815498155
scalar tree_4_3_u02_r7_network.node[29].content_store 	hits[29] 	1848
scalar tree_4_3_u02_r7_network.node[29].content_store 	misses[29] 	10076
scalar tree_4_3_u02_r7_network.node[29].content_store 	decision_yes[29] 	10075
scalar tree_4_3_u02_r7_network.node[29].content_store 	decision_no[29] 	0
scalar tree_4_3_u02_r7_network.node[29].content_store 	decision_ratio[29] 	1
scalar tree_4_3_u02_r7_network.node[30].core_layer 	interests[30] 	11923
scalar tree_4_3_u02_r7_network.node[30].core_layer 	data[30] 	10057
scalar tree_4_3_u02_r7_network.node[30].content_store 	p_hit[30] 	0.15642036400235
scalar tree_4_3_u02_r7_network.node[30].content_store 	hits[30] 	1865
scalar tree_4_3_u02_r7_network.node[30].content_store 	misses[30] 	10058
scalar tree_4_3_u02_r7_network.node[30].content_store 	decision_yes[30] 	10057
scalar tree_4_3_u02_r7_network.node[30].content_store 	decision_no[30] 	0
scalar tree_4_3_u02_r7_network.node[30].content_store 	decision_ratio[30] 	1
scalar tree_4_3_u02_r7_network.node[31].core_layer 	interests[31] 	11939
scalar tree_4_3_u02_r7_network.node[31].core_layer 	data[31] 	10095
scalar tree_4_3_u02_r7_network.node[31].content_store 	p_hit[31] 	0.15436803752408
scalar tree_4_3_u02_r7_network.node[31].content_store 	hits[31] 	1843
scalar tree_4_3_u02_r7_network.node[31].content_store 	misses[31] 	10096
scalar tree_4_3_u02_r7_network.node[31].content_store 	decision_yes[31] 	10095
scalar tree_4_3_u02_r7_network.node[31].content_store 	decision_no[31] 	0
scalar tree_4_3_u02_r7_network.node[31].content_store 	decision_ratio[31] 	1
scalar tree_4_3_u02_r7_network.node[32].core_layer 	interests[32] 	12028
scalar tree_4_3_u02_r7_network.node[32].core_layer 	data[32] 	10135
scalar tree_4_3_u02_r7_network.node[32].content_store 	p_hit[32] 	0.15721649484536
scalar tree_4_3_u02_r7_network.node[32].content_store 	hits[32] 	1891
scalar tree_4_3_u02_r7_network.node[32].content_store 	misses[32] 	10137
scalar tree_4_3_u02_r7_network.node[32].content_store 	decision_yes[32] 	10135
scalar tree_4_3_u02_r7_network.node[32].content_store 	decision_no[32] 	0
scalar tree_4_3_u02_r7_network.node[32].content_store 	decision_ratio[32] 	1
scalar tree_4_3_u02_r7_network.node[33].core_layer 	interests[33] 	11823
scalar tree_4_3_u02_r7_network.node[33].core_layer 	data[33] 	9965
scalar tree_4_3_u02_r7_network.node[33].content_store 	p_hit[33] 	0.15715131523302
scalar tree_4_3_u02_r7_network.node[33].content_store 	hits[33] 	1858
scalar tree_4_3_u02_r7_network.node[33].content_store 	misses[33] 	9965
scalar tree_4_3_u02_r7_network.node[33].content_store 	decision_yes[33] 	9965
scalar tree_4_3_u02_r7_network.node[33].content_store 	decision_no[33] 	0
scalar tree_4_3_u02_r7_network.node[33].content_store 	decision_ratio[33] 	1
scalar tree_4_3_u02_r7_network.node[34].core_layer 	interests[34] 	12027
scalar tree_4_3_u02_r7_network.node[34].core_layer 	data[34] 	10177
scalar tree_4_3_u02_r7_network.node[34].content_store 	p_hit[34] 	0.1538205703833
scalar tree_4_3_u02_r7_network.node[34].content_store 	hits[34] 	1850
scalar tree_4_3_u02_r7_network.node[34].content_store 	misses[34] 	10177
scalar tree_4_3_u02_r7_network.node[34].content_store 	decision_yes[34] 	10177
scalar tree_4_3_u02_r7_network.node[34].content_store 	decision_no[34] 	0
scalar tree_4_3_u02_r7_network.node[34].content_store 	decision_ratio[34] 	1
scalar tree_4_3_u02_r7_network.node[35].core_layer 	interests[35] 	11926
scalar tree_4_3_u02_r7_network.node[35].core_layer 	data[35] 	10140
scalar tree_4_3_u02_r7_network.node[35].content_store 	p_hit[35] 	0.14975683380849
scalar tree_4_3_u02_r7_network.node[35].content_store 	hits[35] 	1786
scalar tree_4_3_u02_r7_network.node[35].content_store 	misses[35] 	10140
scalar tree_4_3_u02_r7_network.node[35].content_store 	decision_yes[35] 	10140
scalar tree_4_3_u02_r7_network.node[35].content_store 	decision_no[35] 	0
scalar tree_4_3_u02_r7_network.node[35].content_store 	decision_ratio[35] 	1
scalar tree_4_3_u02_r7_network.node[36].core_layer 	interests[36] 	11921
scalar tree_4_3_u02_r7_network.node[36].core_layer 	data[36] 	10090
scalar tree_4_3_u02_r7_network.node[36].content_store 	p_hit[36] 	0.15342672594581
scalar tree_4_3_u02_r7_network.node[36].content_store 	hits[36] 	1829
scalar tree_4_3_u02_r7_network.node[36].content_store 	misses[36] 	10092
scalar tree_4_3_u02_r7_network.node[36].content_store 	decision_yes[36] 	10090
scalar tree_4_3_u02_r7_network.node[36].content_store 	decision_no[36] 	0
scalar tree_4_3_u02_r7_network.node[36].content_store 	decision_ratio[36] 	1
scalar tree_4_3_u02_r7_network.node[37].core_layer 	interests[37] 	11992
scalar tree_4_3_u02_r7_network.node[37].core_layer 	data[37] 	10113
scalar tree_4_3_u02_r7_network.node[37].content_store 	p_hit[37] 	0.15660440293529
scalar tree_4_3_u02_r7_network.node[37].content_store 	hits[37] 	1878
scalar tree_4_3_u02_r7_network.node[37].content_store 	misses[37] 	10114
scalar tree_4_3_u02_r7_network.node[37].content_store 	decision_yes[37] 	10113
scalar tree_4_3_u02_r7_network.node[37].content_store 	decision_no[37] 	0
scalar tree_4_3_u02_r7_network.node[37].content_store 	decision_ratio[37] 	1
scalar tree_4_3_u02_r7_network.node[38].core_layer 	interests[38] 	11977
scalar tree_4_3_u02_r7_network.node[38].core_layer 	data[38] 	10202
scalar tree_4_3_u02_r7_network.node[38].content_store 	p_hit[38] 	0.14820071804292
scalar tree_4_3_u02_r7_network.node[38].content_store 	hits[38] 	1775
scalar tree_4_3_u02_r7_network.node[38].content_store 	misses[38] 	10202
scalar tree_4_3_u02_r7_network.node[38].content_store 	decision_yes[38] 	10202
scalar tree_4_3_u02_r7_network.node[38].content_store 	decision_no[38] 	0
scalar tree_4_3_u02_r7_network.node[38].content_store 	decision_ratio[38] 	1
scalar tree_4_3_u02_r7_network.node[39].core_layer 	interests[39] 	12117
scalar tree_4_3_u02_r7_network.node[39].core_layer 	data[39] 	10217
scalar tree_4_3_u02_r7_network.node[39].content_store 	p_hit[39] 	0.15672196088141
scalar tree_4_3_u02_r7_network.node[39].content_store 	hits[39] 	1899
scalar tree_4_3_u02_r7_network.node[39].content_store 	misses[39] 	10218
scalar tree_4_3_u02_r7_network.node[39].content_store 	decision_yes[39] 	10217
scalar tree_4_3_u02_r7_network.node[39].content_store 	decision_no[39] 	0
scalar tree_4_3_u02_r7_network.node[39].content_store 	decision_ratio[39] 	1
scalar tree_4_3_u02_r7_network.client[13] 	hdistance[13] 	3.2835042878762
scalar tree_4_3_u02_r7_network.client[13] 	downloads[13] 	11894
scalar tree_4_3_u02_r7_network.client[13] 	avg_time[13] 	0.004979177739
scalar tree_4_3_u02_r7_network.client[14] 	hdistance[14] 	3.2773802508629
scalar tree_4_3_u02_r7_network.client[14] 	downloads[14] 	11879
scalar tree_4_3_u02_r7_network.client[14] 	avg_time[14] 	0.004969232345
scalar tree_4_3_u02_r7_network.client[15] 	hdistance[15] 	3.2755653054337
scalar tree_4_3_u02_r7_network.client[15] 	downloads[15] 	11852
scalar tree_4_3_u02_r7_network.client[15] 	avg_time[15] 	0.004964668246
scalar tree_4_3_u02_r7_network.client[16] 	hdistance[16] 	3.2417518490817
scalar tree_4_3_u02_r7_network.client[16] 	downloads[16] 	12033
scalar tree_4_3_u02_r7_network.client[16] 	avg_time[16] 	0.004912986278
scalar tree_4_3_u02_r7_network.client[17] 	hdistance[17] 	3.2369407648088
scalar tree_4_3_u02_r7_network.client[17] 	downloads[17] 	12003
scalar tree_4_3_u02_r7_network.client[17] 	avg_time[17] 	0.004905660507
scalar tree_4_3_u02_r7_network.client[18] 	hdistance[18] 	3.2477771191464
scalar tree_4_3_u02_r7_network.client[18] 	downloads[18] 	11809
scalar tree_4_3_u02_r7_network.client[18] 	avg_time[18] 	0.004925628714
scalar tree_4_3_u02_r7_network.client[19] 	hdistance[19] 	3.2818398231593
scalar tree_4_3_u02_r7_network.client[19] 	downloads[19] 	11762
scalar tree_4_3_u02_r7_network.client[19] 	avg_time[19] 	0.004980065351
scalar tree_4_3_u02_r7_network.client[20] 	hdistance[20] 	3.2625051674246
scalar tree_4_3_u02_r7_network.client[20] 	downloads[20] 	12095
scalar tree_4_3_u02_r7_network.client[20] 	avg_time[20] 	0.004942055236
scalar tree_4_3_u02_r7_network.client[21] 	hdistance[21] 	3.2475181998676
scalar tree_4_3_u02_r7_network.client[21] 	downloads[21] 	12088
scalar tree_4_3_u02_r7_network.client[21] 	avg_time[21] 	0.004927362986
scalar tree_4_3_u02_r7_network.client[22] 	hdistance[22] 	3.2477912985498
scalar tree_4_3_u02_r7_network.client[22] 	downloads[22] 	11998
scalar tree_4_3_u02_r7_network.client[22] 	avg_time[22] 	0.004922626505
scalar tree_4_3_u02_r7_network.client[23] 	hdistance[23] 	3.2790503956685
scalar tree_4_3_u02_r7_network.client[23] 	downloads[23] 	12005
scalar tree_4_3_u02_r7_network.client[23] 	avg_time[23] 	0.004967959203
scalar tree_4_3_u02_r7_network.client[24] 	hdistance[24] 	3.268156424581
scalar tree_4_3_u02_r7_network.client[24] 	downloads[24] 	11993
scalar tree_4_3_u02_r7_network.client[24] 	avg_time[24] 	0.004950410969
scalar tree_4_3_u02_r7_network.client[25] 	hdistance[25] 	3.2395124001681
scalar tree_4_3_u02_r7_network.client[25] 	downloads[25] 	11895
scalar tree_4_3_u02_r7_network.client[25] 	avg_time[25] 	0.004917394104
scalar tree_4_3_u02_r7_network.client[26] 	hdistance[26] 	3.2520564042303
scalar tree_4_3_u02_r7_network.client[26] 	downloads[26] 	11914
scalar tree_4_3_u02_r7_network.client[26] 	avg_time[26] 	0.004931338293
scalar tree_4_3_u02_r7_network.client[27] 	hdistance[27] 	3.2419138595609
scalar tree_4_3_u02_r7_network.client[27] 	downloads[27] 	11934
scalar tree_4_3_u02_r7_network.client[27] 	avg_time[27] 	0.00491804629
scalar tree_4_3_u02_r7_network.client[28] 	hdistance[28] 	3.2568692756037
scalar tree_4_3_u02_r7_network.client[28] 	downloads[28] 	12010
scalar tree_4_3_u02_r7_network.client[28] 	avg_time[28] 	0.004937142161
scalar tree_4_3_u02_r7_network.client[29] 	hdistance[29] 	3.2633565377841
scalar tree_4_3_u02_r7_network.client[29] 	downloads[29] 	11923
scalar tree_4_3_u02_r7_network.client[29] 	avg_time[29] 	0.004950460467
scalar tree_4_3_u02_r7_network.client[30] 	hdistance[30] 	3.2606106357994
scalar tree_4_3_u02_r7_network.client[30] 	downloads[30] 	11922
scalar tree_4_3_u02_r7_network.client[30] 	avg_time[30] 	0.004944677935
scalar tree_4_3_u02_r7_network.client[31] 	hdistance[31] 	3.2550678505612
scalar tree_4_3_u02_r7_network.client[31] 	downloads[31] 	11938
scalar tree_4_3_u02_r7_network.client[31] 	avg_time[31] 	0.004933392231
scalar tree_4_3_u02_r7_network.client[32] 	hdistance[32] 	3.245717611841
scalar tree_4_3_u02_r7_network.client[32] 	downloads[32] 	12026
scalar tree_4_3_u02_r7_network.client[32] 	avg_time[32] 	0.004923692836
scalar tree_4_3_u02_r7_network.client[33] 	hdistance[33] 	3.2419859595703
scalar tree_4_3_u02_r7_network.client[33] 	downloads[33] 	11823
scalar tree_4_3_u02_r7_network.client[33] 	avg_time[33] 	0.004916213771
scalar tree_4_3_u02_r7_network.client[34] 	hdistance[34] 	3.2586679970067
scalar tree_4_3_u02_r7_network.client[34] 	downloads[34] 	12027
scalar tree_4_3_u02_r7_network.client[34] 	avg_time[34] 	0.004942210357
scalar tree_4_3_u02_r7_network.client[35] 	hdistance[35] 	3.2777964112024
scalar tree_4_3_u02_r7_network.client[35] 	downloads[35] 	11926
scalar tree_4_3_u02_r7_network.client[35] 	avg_time[35] 	0.004970817095
scalar tree_4_3_u02_r7_network.client[36] 	hdistance[36] 	3.2593338367313
scalar tree_4_3_u02_r7_network.client[36] 	downloads[36] 	11919
scalar tree_4_3_u02_r7_network.client[36] 	avg_time[36] 	0.004945570245
scalar tree_4_3_u02_r7_network.client[37] 	hdistance[37] 	3.244516720874
scalar tree_4_3_u02_r7_network.client[37] 	downloads[37] 	11991
scalar tree_4_3_u02_r7_network.client[37] 	avg_time[37] 	0.004919631905
scalar tree_4_3_u02_r7_network.client[38] 	hdistance[38] 	3.2786173499207
scalar tree_4_3_u02_r7_network.client[38] 	downloads[38] 	11977
scalar tree_4_3_u02_r7_network.client[38] 	avg_time[38] 	0.004971358774
scalar tree_4_3_u02_r7_network.client[39] 	hdistance[39] 	3.2542918454936
scalar tree_4_3_u02_r7_network.client[39] 	downloads[39] 	12116
scalar tree_4_3_u02_r7_network.client[39] 	avg_time[39] 	0.004933387994
