version 2
run General-171-20160820-16:46:42-2644
attr a 0.9
attr cd lce
attr configname General
attr cr lru
attr datetime 20160820-16:46:42
attr experiment General
attr fsize 1
attr inifile hw5115/scenario_A/SPR-LCE.ini
attr iterationvars "$name=tree_4_3, $un=08, $rep=12, $cd=lce, $cr=lru, $fsize=1, $a=0.9, $sl=spr, $ttl=1000, $variance=0.05"
attr iterationvars2 "$name=tree_4_3, $un=08, $rep=12, $cd=lce, $cr=lru, $fsize=1, $a=0.9, $sl=spr, $ttl=1000, $variance=0.05, $repetition=0"
attr measurement "$name=tree_4_3, $un=08, $rep=12, $cd=lce, $cr=lru, $fsize=1, $a=0.9, $sl=spr, $ttl=1000, $variance=0.05"
attr name tree_4_3
attr network networks.${name}_u${un}_r${rep}_network
attr processid 2644
attr rep 12
attr repetition 0
attr replication #0
attr resultdir results
attr runnumber 171
attr seedset 12
attr sl spr
attr ttl 1000
attr un 08
attr variance 0.05

scalar . 	a 	0.9
scalar . 	fsize 	1
scalar . 	rep 	12
scalar . 	ttl 	1000
scalar . 	un 	08
scalar . 	variance 	0.05
scalar tree_4_3_u08_r12_network.content_distribution 	repo-0 	0
scalar tree_4_3_u08_r12_network.content_distribution 	client-0 	13
scalar tree_4_3_u08_r12_network.content_distribution 	client-1 	14
scalar tree_4_3_u08_r12_network.content_distribution 	client-2 	15
scalar tree_4_3_u08_r12_network.content_distribution 	client-3 	16
scalar tree_4_3_u08_r12_network.content_distribution 	client-4 	17
scalar tree_4_3_u08_r12_network.content_distribution 	client-5 	18
scalar tree_4_3_u08_r12_network.content_distribution 	client-6 	19
scalar tree_4_3_u08_r12_network.content_distribution 	client-7 	20
scalar tree_4_3_u08_r12_network.content_distribution 	client-8 	21
scalar tree_4_3_u08_r12_network.content_distribution 	client-9 	22
scalar tree_4_3_u08_r12_network.content_distribution 	client-10 	23
scalar tree_4_3_u08_r12_network.content_distribution 	client-11 	24
scalar tree_4_3_u08_r12_network.content_distribution 	client-12 	25
scalar tree_4_3_u08_r12_network.content_distribution 	client-13 	26
scalar tree_4_3_u08_r12_network.content_distribution 	client-14 	27
scalar tree_4_3_u08_r12_network.content_distribution 	client-15 	28
scalar tree_4_3_u08_r12_network.content_distribution 	client-16 	29
scalar tree_4_3_u08_r12_network.content_distribution 	client-17 	30
scalar tree_4_3_u08_r12_network.content_distribution 	client-18 	31
scalar tree_4_3_u08_r12_network.content_distribution 	client-19 	32
scalar tree_4_3_u08_r12_network.content_distribution 	client-20 	33
scalar tree_4_3_u08_r12_network.content_distribution 	client-21 	34
scalar tree_4_3_u08_r12_network.content_distribution 	client-22 	35
scalar tree_4_3_u08_r12_network.content_distribution 	client-23 	36
scalar tree_4_3_u08_r12_network.content_distribution 	client-24 	37
scalar tree_4_3_u08_r12_network.content_distribution 	client-25 	38
scalar tree_4_3_u08_r12_network.content_distribution 	client-26 	39
scalar tree_4_3_u08_r12_network.content_distribution 	repo-0_card 	100000
scalar tree_4_3_u08_r12_network.content_distribution 	repo-0_price 	0
scalar tree_4_3_u08_r12_network.statistics 	stabilization_time 	563.9
scalar tree_4_3_u08_r12_network.statistics 	p_hit 	0.11243246733131
scalar tree_4_3_u08_r12_network.statistics 	interests 	28071.55
scalar tree_4_3_u08_r12_network.statistics 	data 	19965.6
scalar tree_4_3_u08_r12_network.statistics 	hdistance 	3.252734190327
scalar tree_4_3_u08_r12_network.statistics 	avg_time 	0.004926734616
scalar tree_4_3_u08_r12_network.statistics 	downloads 	324207
scalar tree_4_3_u08_r12_network.statistics 	total_cost 	0
scalar tree_4_3_u08_r12_network.statistics 	total_replicas 	100000
scalar tree_4_3_u08_r12_network.statistics 	inner_hit 	0.21093930729441
scalar tree_4_3_u08_r12_network.node[0].core_layer 	interests[0] 	259431
scalar tree_4_3_u08_r12_network.node[0].core_layer 	repo_load[0] 	255819
scalar tree_4_3_u08_r12_network.node[0].core_layer 	data[0] 	0
scalar tree_4_3_u08_r12_network.node[0].core_layer 	repo_int[0] 	255819
scalar tree_4_3_u08_r12_network.node[0].content_store 	p_hit[0] 	0.013922777154619
scalar tree_4_3_u08_r12_network.node[0].content_store 	hits[0] 	3612
scalar tree_4_3_u08_r12_network.node[0].content_store 	misses[0] 	255819
scalar tree_4_3_u08_r12_network.node[0].content_store 	decision_yes[0] 	255819
scalar tree_4_3_u08_r12_network.node[0].content_store 	decision_no[0] 	0
scalar tree_4_3_u08_r12_network.node[0].content_store 	decision_ratio[0] 	1
scalar tree_4_3_u08_r12_network.node[1].core_layer 	interests[1] 	176666
scalar tree_4_3_u08_r12_network.node[1].core_layer 	data[1] 	172151
scalar tree_4_3_u08_r12_network.node[1].content_store 	p_hit[1] 	0.025392548651127
scalar tree_4_3_u08_r12_network.node[1].content_store 	hits[1] 	4486
scalar tree_4_3_u08_r12_network.node[1].content_store 	misses[1] 	172180
scalar tree_4_3_u08_r12_network.node[1].content_store 	decision_yes[1] 	172151
scalar tree_4_3_u08_r12_network.node[1].content_store 	decision_no[1] 	0
scalar tree_4_3_u08_r12_network.node[1].content_store 	decision_ratio[1] 	1
scalar tree_4_3_u08_r12_network.node[2].core_layer 	interests[2] 	79092
scalar tree_4_3_u08_r12_network.node[2].core_layer 	data[2] 	77346
scalar tree_4_3_u08_r12_network.node[2].content_store 	p_hit[2] 	0.022037627067213
scalar tree_4_3_u08_r12_network.node[2].content_store 	hits[2] 	1743
scalar tree_4_3_u08_r12_network.node[2].content_store 	misses[2] 	77349
scalar tree_4_3_u08_r12_network.node[2].content_store 	decision_yes[2] 	77346
scalar tree_4_3_u08_r12_network.node[2].content_store 	decision_no[2] 	0
scalar tree_4_3_u08_r12_network.node[2].content_store 	decision_ratio[2] 	1
scalar tree_4_3_u08_r12_network.node[3].core_layer 	interests[3] 	9933
scalar tree_4_3_u08_r12_network.node[3].core_layer 	data[3] 	9933
scalar tree_4_3_u08_r12_network.node[3].content_store 	p_hit[3] 	0
scalar tree_4_3_u08_r12_network.node[3].content_store 	hits[3] 	0
scalar tree_4_3_u08_r12_network.node[3].content_store 	misses[3] 	9933
scalar tree_4_3_u08_r12_network.node[3].content_store 	decision_yes[3] 	9933
scalar tree_4_3_u08_r12_network.node[3].content_store 	decision_no[3] 	0
scalar tree_4_3_u08_r12_network.node[3].content_store 	decision_ratio[3] 	1
scalar tree_4_3_u08_r12_network.node[4].core_layer 	interests[4] 	40770
scalar tree_4_3_u08_r12_network.node[4].core_layer 	data[4] 	39467
scalar tree_4_3_u08_r12_network.node[4].content_store 	p_hit[4] 	0.031861662987491
scalar tree_4_3_u08_r12_network.node[4].content_store 	hits[4] 	1299
scalar tree_4_3_u08_r12_network.node[4].content_store 	misses[4] 	39471
scalar tree_4_3_u08_r12_network.node[4].content_store 	decision_yes[4] 	39467
scalar tree_4_3_u08_r12_network.node[4].content_store 	decision_no[4] 	0
scalar tree_4_3_u08_r12_network.node[4].content_store 	decision_ratio[4] 	1
scalar tree_4_3_u08_r12_network.node[5].core_layer 	interests[5] 	30363
scalar tree_4_3_u08_r12_network.node[5].core_layer 	data[5] 	29525
scalar tree_4_3_u08_r12_network.node[5].content_store 	p_hit[5] 	0.027533511181372
scalar tree_4_3_u08_r12_network.node[5].content_store 	hits[5] 	836
scalar tree_4_3_u08_r12_network.node[5].content_store 	misses[5] 	29527
scalar tree_4_3_u08_r12_network.node[5].content_store 	decision_yes[5] 	29525
scalar tree_4_3_u08_r12_network.node[5].content_store 	decision_no[5] 	0
scalar tree_4_3_u08_r12_network.node[5].content_store 	decision_ratio[5] 	1
scalar tree_4_3_u08_r12_network.node[6].core_layer 	interests[6] 	20407
scalar tree_4_3_u08_r12_network.node[6].core_layer 	data[6] 	19946
scalar tree_4_3_u08_r12_network.node[6].content_store 	p_hit[6] 	0.022541284853237
scalar tree_4_3_u08_r12_network.node[6].content_store 	hits[6] 	460
scalar tree_4_3_u08_r12_network.node[6].content_store 	misses[6] 	19947
scalar tree_4_3_u08_r12_network.node[6].content_store 	decision_yes[6] 	19946
scalar tree_4_3_u08_r12_network.node[6].content_store 	decision_no[6] 	0
scalar tree_4_3_u08_r12_network.node[6].content_store 	decision_ratio[6] 	1
scalar tree_4_3_u08_r12_network.node[7].core_layer 	interests[7] 	50453
scalar tree_4_3_u08_r12_network.node[7].core_layer 	data[7] 	48715
scalar tree_4_3_u08_r12_network.node[7].content_store 	p_hit[7] 	0.034309159019285
scalar tree_4_3_u08_r12_network.node[7].content_store 	hits[7] 	1731
scalar tree_4_3_u08_r12_network.node[7].content_store 	misses[7] 	48722
scalar tree_4_3_u08_r12_network.node[7].content_store 	decision_yes[7] 	48715
scalar tree_4_3_u08_r12_network.node[7].content_store 	decision_no[7] 	0
scalar tree_4_3_u08_r12_network.node[7].content_store 	decision_ratio[7] 	1
scalar tree_4_3_u08_r12_network.node[8].core_layer 	interests[8] 	30551
scalar tree_4_3_u08_r12_network.node[8].core_layer 	data[8] 	29715
scalar tree_4_3_u08_r12_network.node[8].content_store 	p_hit[8] 	0.027331347582731
scalar tree_4_3_u08_r12_network.node[8].content_store 	hits[8] 	835
scalar tree_4_3_u08_r12_network.node[8].content_store 	misses[8] 	29716
scalar tree_4_3_u08_r12_network.node[8].content_store 	decision_yes[8] 	29715
scalar tree_4_3_u08_r12_network.node[8].content_store 	decision_no[8] 	0
scalar tree_4_3_u08_r12_network.node[8].content_store 	decision_ratio[8] 	1
scalar tree_4_3_u08_r12_network.node[9].core_layer 	interests[9] 	10220
scalar tree_4_3_u08_r12_network.node[9].core_layer 	data[9] 	10177
scalar tree_4_3_u08_r12_network.node[9].content_store 	p_hit[9] 	0.0042074363992172
scalar tree_4_3_u08_r12_network.node[9].content_store 	hits[9] 	43
scalar tree_4_3_u08_r12_network.node[9].content_store 	misses[9] 	10177
scalar tree_4_3_u08_r12_network.node[9].content_store 	decision_yes[9] 	10177
scalar tree_4_3_u08_r12_network.node[9].content_store 	decision_no[9] 	0
scalar tree_4_3_u08_r12_network.node[9].content_store 	decision_ratio[9] 	1
scalar tree_4_3_u08_r12_network.node[10].core_layer 	interests[10] 	40234
scalar tree_4_3_u08_r12_network.node[10].core_layer 	data[10] 	39010
scalar tree_4_3_u08_r12_network.node[10].content_store 	p_hit[10] 	0.030397176517373
scalar tree_4_3_u08_r12_network.node[10].content_store 	hits[10] 	1223
scalar tree_4_3_u08_r12_network.node[10].content_store 	misses[10] 	39011
scalar tree_4_3_u08_r12_network.node[10].content_store 	decision_yes[10] 	39010
scalar tree_4_3_u08_r12_network.node[10].content_store 	decision_no[10] 	0
scalar tree_4_3_u08_r12_network.node[10].content_store 	decision_ratio[10] 	1
scalar tree_4_3_u08_r12_network.node[11].core_layer 	interests[11] 	40555
scalar tree_4_3_u08_r12_network.node[11].core_layer 	data[11] 	39200
scalar tree_4_3_u08_r12_network.node[11].content_store 	p_hit[11] 	0.033263469362594
scalar tree_4_3_u08_r12_network.node[11].content_store 	hits[11] 	1349
scalar tree_4_3_u08_r12_network.node[11].content_store 	misses[11] 	39206
scalar tree_4_3_u08_r12_network.node[11].content_store 	decision_yes[11] 	39200
scalar tree_4_3_u08_r12_network.node[11].content_store 	decision_no[11] 	0
scalar tree_4_3_u08_r12_network.node[11].content_store 	decision_ratio[11] 	1
scalar tree_4_3_u08_r12_network.node[12].core_layer 	interests[12] 	9957
scalar tree_4_3_u08_r12_network.node[12].core_layer 	data[12] 	9933
scalar tree_4_3_u08_r12_network.node[12].content_store 	p_hit[12] 	0.0024103645676409
scalar tree_4_3_u08_r12_network.node[12].content_store 	hits[12] 	24
scalar tree_4_3_u08_r12_network.node[12].content_store 	misses[12] 	9933
scalar tree_4_3_u08_r12_network.node[12].content_store 	decision_yes[12] 	9933
scalar tree_4_3_u08_r12_network.node[12].content_store 	decision_no[12] 	0
scalar tree_4_3_u08_r12_network.node[12].content_store 	decision_ratio[12] 	1
scalar tree_4_3_u08_r12_network.node[13].core_layer 	interests[13] 	12154
scalar tree_4_3_u08_r12_network.node[13].core_layer 	data[13] 	10240
scalar tree_4_3_u08_r12_network.node[13].content_store 	p_hit[13] 	0.15731446437387
scalar tree_4_3_u08_r12_network.node[13].content_store 	hits[13] 	1912
scalar tree_4_3_u08_r12_network.node[13].content_store 	misses[13] 	10242
scalar tree_4_3_u08_r12_network.node[13].content_store 	decision_yes[13] 	10240
scalar tree_4_3_u08_r12_network.node[13].content_store 	decision_no[13] 	0
scalar tree_4_3_u08_r12_network.node[13].content_store 	decision_ratio[13] 	1
scalar tree_4_3_u08_r12_network.node[14].core_layer 	interests[14] 	11941
scalar tree_4_3_u08_r12_network.node[14].core_layer 	data[14] 	10044
scalar tree_4_3_u08_r12_network.node[14].content_store 	p_hit[14] 	0.15886441671552
scalar tree_4_3_u08_r12_network.node[14].content_store 	hits[14] 	1897
scalar tree_4_3_u08_r12_network.node[14].content_store 	misses[14] 	10044
scalar tree_4_3_u08_r12_network.node[14].content_store 	decision_yes[14] 	10044
scalar tree_4_3_u08_r12_network.node[14].content_store 	decision_no[14] 	0
scalar tree_4_3_u08_r12_network.node[14].content_store 	decision_ratio[14] 	1
scalar tree_4_3_u08_r12_network.node[15].core_layer 	interests[15] 	12180
scalar tree_4_3_u08_r12_network.node[15].core_layer 	data[15] 	10233
scalar tree_4_3_u08_r12_network.node[15].content_store 	p_hit[15] 	0.15977011494253
scalar tree_4_3_u08_r12_network.node[15].content_store 	hits[15] 	1946
scalar tree_4_3_u08_r12_network.node[15].content_store 	misses[15] 	10234
scalar tree_4_3_u08_r12_network.node[15].content_store 	decision_yes[15] 	10233
scalar tree_4_3_u08_r12_network.node[15].content_store 	decision_no[15] 	0
scalar tree_4_3_u08_r12_network.node[15].content_store 	decision_ratio[15] 	1
scalar tree_4_3_u08_r12_network.node[16].core_layer 	interests[16] 	12196
scalar tree_4_3_u08_r12_network.node[16].core_layer 	data[16] 	10251
scalar tree_4_3_u08_r12_network.node[16].content_store 	p_hit[16] 	0.15931452935389
scalar tree_4_3_u08_r12_network.node[16].content_store 	hits[16] 	1943
scalar tree_4_3_u08_r12_network.node[16].content_store 	misses[16] 	10253
scalar tree_4_3_u08_r12_network.node[16].content_store 	decision_yes[16] 	10251
scalar tree_4_3_u08_r12_network.node[16].content_store 	decision_no[16] 	0
scalar tree_4_3_u08_r12_network.node[16].content_store 	decision_ratio[16] 	1
scalar tree_4_3_u08_r12_network.node[17].core_layer 	interests[17] 	11807
scalar tree_4_3_u08_r12_network.node[17].core_layer 	data[17] 	9934
scalar tree_4_3_u08_r12_network.node[17].content_store 	p_hit[17] 	0.15863470822393
scalar tree_4_3_u08_r12_network.node[17].content_store 	hits[17] 	1873
scalar tree_4_3_u08_r12_network.node[17].content_store 	misses[17] 	9934
scalar tree_4_3_u08_r12_network.node[17].content_store 	decision_yes[17] 	9934
scalar tree_4_3_u08_r12_network.node[17].content_store 	decision_no[17] 	0
scalar tree_4_3_u08_r12_network.node[17].content_store 	decision_ratio[17] 	1
scalar tree_4_3_u08_r12_network.node[18].core_layer 	interests[18] 	12082
scalar tree_4_3_u08_r12_network.node[18].core_layer 	data[18] 	10276
scalar tree_4_3_u08_r12_network.node[18].content_store 	p_hit[18] 	0.14923025989075
scalar tree_4_3_u08_r12_network.node[18].content_store 	hits[18] 	1803
scalar tree_4_3_u08_r12_network.node[18].content_store 	misses[18] 	10279
scalar tree_4_3_u08_r12_network.node[18].content_store 	decision_yes[18] 	10276
scalar tree_4_3_u08_r12_network.node[18].content_store 	decision_no[18] 	0
scalar tree_4_3_u08_r12_network.node[18].content_store 	decision_ratio[18] 	1
scalar tree_4_3_u08_r12_network.node[19].core_layer 	interests[19] 	11997
scalar tree_4_3_u08_r12_network.node[19].core_layer 	data[19] 	10183
scalar tree_4_3_u08_r12_network.node[19].content_store 	p_hit[19] 	0.15120446778361
scalar tree_4_3_u08_r12_network.node[19].content_store 	hits[19] 	1814
scalar tree_4_3_u08_r12_network.node[19].content_store 	misses[19] 	10183
scalar tree_4_3_u08_r12_network.node[19].content_store 	decision_yes[19] 	10183
scalar tree_4_3_u08_r12_network.node[19].content_store 	decision_no[19] 	0
scalar tree_4_3_u08_r12_network.node[19].content_store 	decision_ratio[19] 	1
scalar tree_4_3_u08_r12_network.node[20].core_layer 	interests[20] 	12037
scalar tree_4_3_u08_r12_network.node[20].core_layer 	data[20] 	10153
scalar tree_4_3_u08_r12_network.node[20].content_store 	p_hit[20] 	0.15651740466894
scalar tree_4_3_u08_r12_network.node[20].content_store 	hits[20] 	1884
scalar tree_4_3_u08_r12_network.node[20].content_store 	misses[20] 	10153
scalar tree_4_3_u08_r12_network.node[20].content_store 	decision_yes[20] 	10153
scalar tree_4_3_u08_r12_network.node[20].content_store 	decision_no[20] 	0
scalar tree_4_3_u08_r12_network.node[20].content_store 	decision_ratio[20] 	1
scalar tree_4_3_u08_r12_network.node[21].core_layer 	interests[21] 	12113
scalar tree_4_3_u08_r12_network.node[21].core_layer 	data[21] 	10224
scalar tree_4_3_u08_r12_network.node[21].content_store 	p_hit[21] 	0.15594815487493
scalar tree_4_3_u08_r12_network.node[21].content_store 	hits[21] 	1889
scalar tree_4_3_u08_r12_network.node[21].content_store 	misses[21] 	10224
scalar tree_4_3_u08_r12_network.node[21].content_store 	decision_yes[21] 	10224
scalar tree_4_3_u08_r12_network.node[21].content_store 	decision_no[21] 	0
scalar tree_4_3_u08_r12_network.node[21].content_store 	decision_ratio[21] 	1
scalar tree_4_3_u08_r12_network.node[22].core_layer 	interests[22] 	12011
scalar tree_4_3_u08_r12_network.node[22].core_layer 	data[22] 	10132
scalar tree_4_3_u08_r12_network.node[22].content_store 	p_hit[22] 	0.1563566730497
scalar tree_4_3_u08_r12_network.node[22].content_store 	hits[22] 	1878
scalar tree_4_3_u08_r12_network.node[22].content_store 	misses[22] 	10133
scalar tree_4_3_u08_r12_network.node[22].content_store 	decision_yes[22] 	10132
scalar tree_4_3_u08_r12_network.node[22].content_store 	decision_no[22] 	0
scalar tree_4_3_u08_r12_network.node[22].content_store 	decision_ratio[22] 	1
scalar tree_4_3_u08_r12_network.node[23].core_layer 	interests[23] 	11917
scalar tree_4_3_u08_r12_network.node[23].core_layer 	data[23] 	10019
scalar tree_4_3_u08_r12_network.node[23].content_store 	p_hit[23] 	0.1591004447428
scalar tree_4_3_u08_r12_network.node[23].content_store 	hits[23] 	1896
scalar tree_4_3_u08_r12_network.node[23].content_store 	misses[23] 	10021
scalar tree_4_3_u08_r12_network.node[23].content_store 	decision_yes[23] 	10019
scalar tree_4_3_u08_r12_network.node[23].content_store 	decision_no[23] 	0
scalar tree_4_3_u08_r12_network.node[23].content_store 	decision_ratio[23] 	1
scalar tree_4_3_u08_r12_network.node[24].core_layer 	interests[24] 	11904
scalar tree_4_3_u08_r12_network.node[24].core_layer 	data[24] 	10156
scalar tree_4_3_u08_r12_network.node[24].content_store 	p_hit[24] 	0.14675739247312
scalar tree_4_3_u08_r12_network.node[24].content_store 	hits[24] 	1747
scalar tree_4_3_u08_r12_network.node[24].content_store 	misses[24] 	10157
scalar tree_4_3_u08_r12_network.node[24].content_store 	decision_yes[24] 	10156
scalar tree_4_3_u08_r12_network.node[24].content_store 	decision_no[24] 	0
scalar tree_4_3_u08_r12_network.node[24].content_store 	decision_ratio[24] 	1
scalar tree_4_3_u08_r12_network.node[25].core_layer 	interests[25] 	12147
scalar tree_4_3_u08_r12_network.node[25].core_layer 	data[25] 	10249
scalar tree_4_3_u08_r12_network.node[25].content_store 	p_hit[25] 	0.15608792294394
scalar tree_4_3_u08_r12_network.node[25].content_store 	hits[25] 	1896
scalar tree_4_3_u08_r12_network.node[25].content_store 	misses[25] 	10251
scalar tree_4_3_u08_r12_network.node[25].content_store 	decision_yes[25] 	10249
scalar tree_4_3_u08_r12_network.node[25].content_store 	decision_no[25] 	0
scalar tree_4_3_u08_r12_network.node[25].content_store 	decision_ratio[25] 	1
scalar tree_4_3_u08_r12_network.node[26].core_layer 	interests[26] 	11929
scalar tree_4_3_u08_r12_network.node[26].core_layer 	data[26] 	10097
scalar tree_4_3_u08_r12_network.node[26].content_store 	p_hit[26] 	0.15357532064716
scalar tree_4_3_u08_r12_network.node[26].content_store 	hits[26] 	1832
scalar tree_4_3_u08_r12_network.node[26].content_store 	misses[26] 	10097
scalar tree_4_3_u08_r12_network.node[26].content_store 	decision_yes[26] 	10097
scalar tree_4_3_u08_r12_network.node[26].content_store 	decision_no[26] 	0
scalar tree_4_3_u08_r12_network.node[26].content_store 	decision_ratio[26] 	1
scalar tree_4_3_u08_r12_network.node[27].core_layer 	interests[27] 	12049
scalar tree_4_3_u08_r12_network.node[27].core_layer 	data[27] 	10168
scalar tree_4_3_u08_r12_network.node[27].content_store 	p_hit[27] 	0.15611254045979
scalar tree_4_3_u08_r12_network.node[27].content_store 	hits[27] 	1881
scalar tree_4_3_u08_r12_network.node[27].content_store 	misses[27] 	10168
scalar tree_4_3_u08_r12_network.node[27].content_store 	decision_yes[27] 	10168
scalar tree_4_3_u08_r12_network.node[27].content_store 	decision_no[27] 	0
scalar tree_4_3_u08_r12_network.node[27].content_store 	decision_ratio[27] 	1
scalar tree_4_3_u08_r12_network.node[28].core_layer 	interests[28] 	11712
scalar tree_4_3_u08_r12_network.node[28].core_layer 	data[28] 	9896
scalar tree_4_3_u08_r12_network.node[28].content_store 	p_hit[28] 	0.15496926229508
scalar tree_4_3_u08_r12_network.node[28].content_store 	hits[28] 	1815
scalar tree_4_3_u08_r12_network.node[28].content_store 	misses[28] 	9897
scalar tree_4_3_u08_r12_network.node[28].content_store 	decision_yes[28] 	9896
scalar tree_4_3_u08_r12_network.node[28].content_store 	decision_no[28] 	0
scalar tree_4_3_u08_r12_network.node[28].content_store 	decision_ratio[28] 	1
scalar tree_4_3_u08_r12_network.node[29].core_layer 	interests[29] 	12134
scalar tree_4_3_u08_r12_network.node[29].core_layer 	data[29] 	10286
scalar tree_4_3_u08_r12_network.node[29].content_store 	p_hit[29] 	0.15229932421296
scalar tree_4_3_u08_r12_network.node[29].content_store 	hits[29] 	1848
scalar tree_4_3_u08_r12_network.node[29].content_store 	misses[29] 	10286
scalar tree_4_3_u08_r12_network.node[29].content_store 	decision_yes[29] 	10286
scalar tree_4_3_u08_r12_network.node[29].content_store 	decision_no[29] 	0
scalar tree_4_3_u08_r12_network.node[29].content_store 	decision_ratio[29] 	1
scalar tree_4_3_u08_r12_network.node[30].core_layer 	interests[30] 	12044
scalar tree_4_3_u08_r12_network.node[30].core_layer 	data[30] 	10220
scalar tree_4_3_u08_r12_network.node[30].content_store 	p_hit[30] 	0.15144470275656
scalar tree_4_3_u08_r12_network.node[30].content_store 	hits[30] 	1824
scalar tree_4_3_u08_r12_network.node[30].content_store 	misses[30] 	10220
scalar tree_4_3_u08_r12_network.node[30].content_store 	decision_yes[30] 	10220
scalar tree_4_3_u08_r12_network.node[30].content_store 	decision_no[30] 	0
scalar tree_4_3_u08_r12_network.node[30].content_store 	decision_ratio[30] 	1
scalar tree_4_3_u08_r12_network.node[31].core_layer 	interests[31] 	12041
scalar tree_4_3_u08_r12_network.node[31].core_layer 	data[31] 	10090
scalar tree_4_3_u08_r12_network.node[31].content_store 	p_hit[31] 	0.16202973174985
scalar tree_4_3_u08_r12_network.node[31].content_store 	hits[31] 	1951
scalar tree_4_3_u08_r12_network.node[31].content_store 	misses[31] 	10090
scalar tree_4_3_u08_r12_network.node[31].content_store 	decision_yes[31] 	10090
scalar tree_4_3_u08_r12_network.node[31].content_store 	decision_no[31] 	0
scalar tree_4_3_u08_r12_network.node[31].content_store 	decision_ratio[31] 	1
scalar tree_4_3_u08_r12_network.node[32].core_layer 	interests[32] 	11944
scalar tree_4_3_u08_r12_network.node[32].core_layer 	data[32] 	10057
scalar tree_4_3_u08_r12_network.node[32].content_store 	p_hit[32] 	0.15790354989953
scalar tree_4_3_u08_r12_network.node[32].content_store 	hits[32] 	1886
scalar tree_4_3_u08_r12_network.node[32].content_store 	misses[32] 	10058
scalar tree_4_3_u08_r12_network.node[32].content_store 	decision_yes[32] 	10057
scalar tree_4_3_u08_r12_network.node[32].content_store 	decision_no[32] 	0
scalar tree_4_3_u08_r12_network.node[32].content_store 	decision_ratio[32] 	1
scalar tree_4_3_u08_r12_network.node[33].core_layer 	interests[33] 	11964
scalar tree_4_3_u08_r12_network.node[33].core_layer 	data[33] 	10094
scalar tree_4_3_u08_r12_network.node[33].content_store 	p_hit[33] 	0.15630224005349
scalar tree_4_3_u08_r12_network.node[33].content_store 	hits[33] 	1870
scalar tree_4_3_u08_r12_network.node[33].content_store 	misses[33] 	10094
scalar tree_4_3_u08_r12_network.node[33].content_store 	decision_yes[33] 	10094
scalar tree_4_3_u08_r12_network.node[33].content_store 	decision_no[33] 	0
scalar tree_4_3_u08_r12_network.node[33].content_store 	decision_ratio[33] 	1
scalar tree_4_3_u08_r12_network.node[34].core_layer 	interests[34] 	12063
scalar tree_4_3_u08_r12_network.node[34].core_layer 	data[34] 	10109
scalar tree_4_3_u08_r12_network.node[34].content_store 	p_hit[34] 	0.16190002486944
scalar tree_4_3_u08_r12_network.node[34].content_store 	hits[34] 	1953
scalar tree_4_3_u08_r12_network.node[34].content_store 	misses[34] 	10110
scalar tree_4_3_u08_r12_network.node[34].content_store 	decision_yes[34] 	10109
scalar tree_4_3_u08_r12_network.node[34].content_store 	decision_no[34] 	0
scalar tree_4_3_u08_r12_network.node[34].content_store 	decision_ratio[34] 	1
scalar tree_4_3_u08_r12_network.node[35].core_layer 	interests[35] 	12123
scalar tree_4_3_u08_r12_network.node[35].core_layer 	data[35] 	10252
scalar tree_4_3_u08_r12_network.node[35].content_store 	p_hit[35] 	0.15425224779345
scalar tree_4_3_u08_r12_network.node[35].content_store 	hits[35] 	1870
scalar tree_4_3_u08_r12_network.node[35].content_store 	misses[35] 	10253
scalar tree_4_3_u08_r12_network.node[35].content_store 	decision_yes[35] 	10252
scalar tree_4_3_u08_r12_network.node[35].content_store 	decision_no[35] 	0
scalar tree_4_3_u08_r12_network.node[35].content_store 	decision_ratio[35] 	1
scalar tree_4_3_u08_r12_network.node[36].core_layer 	interests[36] 	11956
scalar tree_4_3_u08_r12_network.node[36].core_layer 	data[36] 	10070
scalar tree_4_3_u08_r12_network.node[36].content_store 	p_hit[36] 	0.15774506523921
scalar tree_4_3_u08_r12_network.node[36].content_store 	hits[36] 	1886
scalar tree_4_3_u08_r12_network.node[36].content_store 	misses[36] 	10070
scalar tree_4_3_u08_r12_network.node[36].content_store 	decision_yes[36] 	10070
scalar tree_4_3_u08_r12_network.node[36].content_store 	decision_no[36] 	0
scalar tree_4_3_u08_r12_network.node[36].content_store 	decision_ratio[36] 	1
scalar tree_4_3_u08_r12_network.node[37].core_layer 	interests[37] 	11927
scalar tree_4_3_u08_r12_network.node[37].core_layer 	data[37] 	9993
scalar tree_4_3_u08_r12_network.node[37].content_store 	p_hit[37] 	0.16181772449065
scalar tree_4_3_u08_r12_network.node[37].content_store 	hits[37] 	1930
scalar tree_4_3_u08_r12_network.node[37].content_store 	misses[37] 	9997
scalar tree_4_3_u08_r12_network.node[37].content_store 	decision_yes[37] 	9993
scalar tree_4_3_u08_r12_network.node[37].content_store 	decision_no[37] 	0
scalar tree_4_3_u08_r12_network.node[37].content_store 	decision_ratio[37] 	1
scalar tree_4_3_u08_r12_network.node[38].core_layer 	interests[38] 	12014
scalar tree_4_3_u08_r12_network.node[38].core_layer 	data[38] 	10123
scalar tree_4_3_u08_r12_network.node[38].content_store 	p_hit[38] 	0.15731646412519
scalar tree_4_3_u08_r12_network.node[38].content_store 	hits[38] 	1890
scalar tree_4_3_u08_r12_network.node[38].content_store 	misses[38] 	10124
scalar tree_4_3_u08_r12_network.node[38].content_store 	decision_yes[38] 	10123
scalar tree_4_3_u08_r12_network.node[38].content_store 	decision_no[38] 	0
scalar tree_4_3_u08_r12_network.node[38].content_store 	decision_ratio[38] 	1
scalar tree_4_3_u08_r12_network.node[39].core_layer 	interests[39] 	11844
scalar tree_4_3_u08_r12_network.node[39].core_layer 	data[39] 	9957
scalar tree_4_3_u08_r12_network.node[39].content_store 	p_hit[39] 	0.15932117527862
scalar tree_4_3_u08_r12_network.node[39].content_store 	hits[39] 	1887
scalar tree_4_3_u08_r12_network.node[39].content_store 	misses[39] 	9957
scalar tree_4_3_u08_r12_network.node[39].content_store 	decision_yes[39] 	9957
scalar tree_4_3_u08_r12_network.node[39].content_store 	decision_no[39] 	0
scalar tree_4_3_u08_r12_network.node[39].content_store 	decision_ratio[39] 	1
scalar tree_4_3_u08_r12_network.client[13] 	hdistance[13] 	3.2426761026991
scalar tree_4_3_u08_r12_network.client[13] 	downloads[13] 	12152
scalar tree_4_3_u08_r12_network.client[13] 	avg_time[13] 	0.004909195869
scalar tree_4_3_u08_r12_network.client[14] 	hdistance[14] 	3.2386734779332
scalar tree_4_3_u08_r12_network.client[14] 	downloads[14] 	11941
scalar tree_4_3_u08_r12_network.client[14] 	avg_time[14] 	0.004902834356
scalar tree_4_3_u08_r12_network.client[15] 	hdistance[15] 	3.2250595286969
scalar tree_4_3_u08_r12_network.client[15] 	downloads[15] 	12179
scalar tree_4_3_u08_r12_network.client[15] 	avg_time[15] 	0.004884254774
scalar tree_4_3_u08_r12_network.client[16] 	hdistance[16] 	3.2333114646548
scalar tree_4_3_u08_r12_network.client[16] 	downloads[16] 	12194
scalar tree_4_3_u08_r12_network.client[16] 	avg_time[16] 	0.004896063569
scalar tree_4_3_u08_r12_network.client[17] 	hdistance[17] 	3.2442618785466
scalar tree_4_3_u08_r12_network.client[17] 	downloads[17] 	11807
scalar tree_4_3_u08_r12_network.client[17] 	avg_time[17] 	0.004912110448
scalar tree_4_3_u08_r12_network.client[18] 	hdistance[18] 	3.2792449706101
scalar tree_4_3_u08_r12_network.client[18] 	downloads[18] 	12079
scalar tree_4_3_u08_r12_network.client[18] 	avg_time[18] 	0.00496323885
scalar tree_4_3_u08_r12_network.client[19] 	hdistance[19] 	3.2756522463949
scalar tree_4_3_u08_r12_network.client[19] 	downloads[19] 	11997
scalar tree_4_3_u08_r12_network.client[19] 	avg_time[19] 	0.004959737933
scalar tree_4_3_u08_r12_network.client[20] 	hdistance[20] 	3.2552961701421
scalar tree_4_3_u08_r12_network.client[20] 	downloads[20] 	12037
scalar tree_4_3_u08_r12_network.client[20] 	avg_time[20] 	0.004927508538
scalar tree_4_3_u08_r12_network.client[21] 	hdistance[21] 	3.2640964253282
scalar tree_4_3_u08_r12_network.client[21] 	downloads[21] 	12113
scalar tree_4_3_u08_r12_network.client[21] 	avg_time[21] 	0.004943385698
scalar tree_4_3_u08_r12_network.client[22] 	hdistance[22] 	3.238051623647
scalar tree_4_3_u08_r12_network.client[22] 	downloads[22] 	12010
scalar tree_4_3_u08_r12_network.client[22] 	avg_time[22] 	0.004903584169
scalar tree_4_3_u08_r12_network.client[23] 	hdistance[23] 	3.2387746537977
scalar tree_4_3_u08_r12_network.client[23] 	downloads[23] 	11915
scalar tree_4_3_u08_r12_network.client[23] 	avg_time[23] 	0.004901685623
scalar tree_4_3_u08_r12_network.client[24] 	hdistance[24] 	3.2780811560111
scalar tree_4_3_u08_r12_network.client[24] 	downloads[24] 	11903
scalar tree_4_3_u08_r12_network.client[24] 	avg_time[24] 	0.004963707363
scalar tree_4_3_u08_r12_network.client[25] 	hdistance[25] 	3.23886372993
scalar tree_4_3_u08_r12_network.client[25] 	downloads[25] 	12145
scalar tree_4_3_u08_r12_network.client[25] 	avg_time[25] 	0.004903068429
scalar tree_4_3_u08_r12_network.client[26] 	hdistance[26] 	3.2633917344287
scalar tree_4_3_u08_r12_network.client[26] 	downloads[26] 	11929
scalar tree_4_3_u08_r12_network.client[26] 	avg_time[26] 	0.004947552583
scalar tree_4_3_u08_r12_network.client[27] 	hdistance[27] 	3.2481533737239
scalar tree_4_3_u08_r12_network.client[27] 	downloads[27] 	12049
scalar tree_4_3_u08_r12_network.client[27] 	avg_time[27] 	0.004928474593
scalar tree_4_3_u08_r12_network.client[28] 	hdistance[28] 	3.2470327042951
scalar tree_4_3_u08_r12_network.client[28] 	downloads[28] 	11711
scalar tree_4_3_u08_r12_network.client[28] 	avg_time[28] 	0.004914324832
scalar tree_4_3_u08_r12_network.client[29] 	hdistance[29] 	3.2750123619581
scalar tree_4_3_u08_r12_network.client[29] 	downloads[29] 	12134
scalar tree_4_3_u08_r12_network.client[29] 	avg_time[29] 	0.004964229697
scalar tree_4_3_u08_r12_network.client[30] 	hdistance[30] 	3.3053802723348
scalar tree_4_3_u08_r12_network.client[30] 	downloads[30] 	12044
scalar tree_4_3_u08_r12_network.client[30] 	avg_time[30] 	0.005017266983
scalar tree_4_3_u08_r12_network.client[31] 	hdistance[31] 	3.2287185449713
scalar tree_4_3_u08_r12_network.client[31] 	downloads[31] 	12041
scalar tree_4_3_u08_r12_network.client[31] 	avg_time[31] 	0.004886302099
scalar tree_4_3_u08_r12_network.client[32] 	hdistance[32] 	3.2458343799715
scalar tree_4_3_u08_r12_network.client[32] 	downloads[32] 	11943
scalar tree_4_3_u08_r12_network.client[32] 	avg_time[32] 	0.004911341213
scalar tree_4_3_u08_r12_network.client[33] 	hdistance[33] 	3.2524239384821
scalar tree_4_3_u08_r12_network.client[33] 	downloads[33] 	11964
scalar tree_4_3_u08_r12_network.client[33] 	avg_time[33] 	0.004923128435
scalar tree_4_3_u08_r12_network.client[34] 	hdistance[34] 	3.2259990051401
scalar tree_4_3_u08_r12_network.client[34] 	downloads[34] 	12062
scalar tree_4_3_u08_r12_network.client[34] 	avg_time[34] 	0.004889076432
scalar tree_4_3_u08_r12_network.client[35] 	hdistance[35] 	3.2521036132651
scalar tree_4_3_u08_r12_network.client[35] 	downloads[35] 	12122
scalar tree_4_3_u08_r12_network.client[35] 	avg_time[35] 	0.004931336545
scalar tree_4_3_u08_r12_network.client[36] 	hdistance[36] 	3.2379558380729
scalar tree_4_3_u08_r12_network.client[36] 	downloads[36] 	11956
scalar tree_4_3_u08_r12_network.client[36] 	avg_time[36] 	0.004911338593
scalar tree_4_3_u08_r12_network.client[37] 	hdistance[37] 	3.2227627275015
scalar tree_4_3_u08_r12_network.client[37] 	downloads[37] 	11923
scalar tree_4_3_u08_r12_network.client[37] 	avg_time[37] 	0.004879757496
scalar tree_4_3_u08_r12_network.client[38] 	hdistance[38] 	3.2385748772163
scalar tree_4_3_u08_r12_network.client[38] 	downloads[38] 	12013
scalar tree_4_3_u08_r12_network.client[38] 	avg_time[38] 	0.004911364908
scalar tree_4_3_u08_r12_network.client[39] 	hdistance[39] 	3.3284363390746
scalar tree_4_3_u08_r12_network.client[39] 	downloads[39] 	11844
scalar tree_4_3_u08_r12_network.client[39] 	avg_time[39] 	0.005035964606
