version 2
run General-173-20160820-16:48:51-2644
attr a 0.9
attr cd lce
attr configname General
attr cr lru
attr datetime 20160820-16:48:51
attr experiment General
attr fsize 1
attr inifile hw5115/scenario_A/SPR-LCE.ini
attr iterationvars "$name=tree_4_3, $un=08, $rep=14, $cd=lce, $cr=lru, $fsize=1, $a=0.9, $sl=spr, $ttl=1000, $variance=0.05"
attr iterationvars2 "$name=tree_4_3, $un=08, $rep=14, $cd=lce, $cr=lru, $fsize=1, $a=0.9, $sl=spr, $ttl=1000, $variance=0.05, $repetition=0"
attr measurement "$name=tree_4_3, $un=08, $rep=14, $cd=lce, $cr=lru, $fsize=1, $a=0.9, $sl=spr, $ttl=1000, $variance=0.05"
attr name tree_4_3
attr network networks.${name}_u${un}_r${rep}_network
attr processid 2644
attr rep 14
attr repetition 0
attr replication #0
attr resultdir results
attr runnumber 173
attr seedset 14
attr sl spr
attr ttl 1000
attr un 08
attr variance 0.05

scalar . 	a 	0.9
scalar . 	fsize 	1
scalar . 	rep 	14
scalar . 	ttl 	1000
scalar . 	un 	08
scalar . 	variance 	0.05
scalar tree_4_3_u08_r14_network.content_distribution 	repo-0 	0
scalar tree_4_3_u08_r14_network.content_distribution 	client-0 	13
scalar tree_4_3_u08_r14_network.content_distribution 	client-1 	14
scalar tree_4_3_u08_r14_network.content_distribution 	client-2 	15
scalar tree_4_3_u08_r14_network.content_distribution 	client-3 	16
scalar tree_4_3_u08_r14_network.content_distribution 	client-4 	17
scalar tree_4_3_u08_r14_network.content_distribution 	client-5 	18
scalar tree_4_3_u08_r14_network.content_distribution 	client-6 	19
scalar tree_4_3_u08_r14_network.content_distribution 	client-7 	20
scalar tree_4_3_u08_r14_network.content_distribution 	client-8 	21
scalar tree_4_3_u08_r14_network.content_distribution 	client-9 	22
scalar tree_4_3_u08_r14_network.content_distribution 	client-10 	23
scalar tree_4_3_u08_r14_network.content_distribution 	client-11 	24
scalar tree_4_3_u08_r14_network.content_distribution 	client-12 	25
scalar tree_4_3_u08_r14_network.content_distribution 	client-13 	26
scalar tree_4_3_u08_r14_network.content_distribution 	client-14 	27
scalar tree_4_3_u08_r14_network.content_distribution 	client-15 	28
scalar tree_4_3_u08_r14_network.content_distribution 	client-16 	29
scalar tree_4_3_u08_r14_network.content_distribution 	client-17 	30
scalar tree_4_3_u08_r14_network.content_distribution 	client-18 	31
scalar tree_4_3_u08_r14_network.content_distribution 	client-19 	32
scalar tree_4_3_u08_r14_network.content_distribution 	client-20 	33
scalar tree_4_3_u08_r14_network.content_distribution 	client-21 	34
scalar tree_4_3_u08_r14_network.content_distribution 	client-22 	35
scalar tree_4_3_u08_r14_network.content_distribution 	client-23 	36
scalar tree_4_3_u08_r14_network.content_distribution 	client-24 	37
scalar tree_4_3_u08_r14_network.content_distribution 	client-25 	38
scalar tree_4_3_u08_r14_network.content_distribution 	client-26 	39
scalar tree_4_3_u08_r14_network.content_distribution 	repo-0_card 	100000
scalar tree_4_3_u08_r14_network.content_distribution 	repo-0_price 	0
scalar tree_4_3_u08_r14_network.statistics 	stabilization_time 	699.8
scalar tree_4_3_u08_r14_network.statistics 	p_hit 	0.11305269902865
scalar tree_4_3_u08_r14_network.statistics 	interests 	28010.525
scalar tree_4_3_u08_r14_network.statistics 	data 	19921.925
scalar tree_4_3_u08_r14_network.statistics 	hdistance 	3.2528374333545
scalar tree_4_3_u08_r14_network.statistics 	avg_time 	0.004926110194
scalar tree_4_3_u08_r14_network.statistics 	downloads 	323539
scalar tree_4_3_u08_r14_network.statistics 	total_cost 	0
scalar tree_4_3_u08_r14_network.statistics 	total_replicas 	100000
scalar tree_4_3_u08_r14_network.statistics 	inner_hit 	0.2105032159956
scalar tree_4_3_u08_r14_network.node[0].core_layer 	interests[0] 	258910
scalar tree_4_3_u08_r14_network.node[0].core_layer 	repo_load[0] 	255433
scalar tree_4_3_u08_r14_network.node[0].core_layer 	data[0] 	0
scalar tree_4_3_u08_r14_network.node[0].core_layer 	repo_int[0] 	255433
scalar tree_4_3_u08_r14_network.node[0].content_store 	p_hit[0] 	0.013429377003592
scalar tree_4_3_u08_r14_network.node[0].content_store 	hits[0] 	3477
scalar tree_4_3_u08_r14_network.node[0].content_store 	misses[0] 	255433
scalar tree_4_3_u08_r14_network.node[0].content_store 	decision_yes[0] 	255433
scalar tree_4_3_u08_r14_network.node[0].content_store 	decision_no[0] 	0
scalar tree_4_3_u08_r14_network.node[0].content_store 	decision_ratio[0] 	1
scalar tree_4_3_u08_r14_network.node[1].core_layer 	interests[1] 	186227
scalar tree_4_3_u08_r14_network.node[1].core_layer 	data[1] 	181458
scalar tree_4_3_u08_r14_network.node[1].content_store 	p_hit[1] 	0.025452807595032
scalar tree_4_3_u08_r14_network.node[1].content_store 	hits[1] 	4740
scalar tree_4_3_u08_r14_network.node[1].content_store 	misses[1] 	181487
scalar tree_4_3_u08_r14_network.node[1].content_store 	decision_yes[1] 	181458
scalar tree_4_3_u08_r14_network.node[1].content_store 	decision_no[1] 	0
scalar tree_4_3_u08_r14_network.node[1].content_store 	decision_ratio[1] 	1
scalar tree_4_3_u08_r14_network.node[2].core_layer 	interests[2] 	59235
scalar tree_4_3_u08_r14_network.node[2].core_layer 	data[2] 	57847
scalar tree_4_3_u08_r14_network.node[2].content_store 	p_hit[2] 	0.023432092512872
scalar tree_4_3_u08_r14_network.node[2].content_store 	hits[2] 	1388
scalar tree_4_3_u08_r14_network.node[2].content_store 	misses[2] 	57847
scalar tree_4_3_u08_r14_network.node[2].content_store 	decision_yes[2] 	57847
scalar tree_4_3_u08_r14_network.node[2].content_store 	decision_no[2] 	0
scalar tree_4_3_u08_r14_network.node[2].content_store 	decision_ratio[2] 	1
scalar tree_4_3_u08_r14_network.node[3].core_layer 	interests[3] 	19614
scalar tree_4_3_u08_r14_network.node[3].core_layer 	data[3] 	19606
scalar tree_4_3_u08_r14_network.node[3].content_store 	p_hit[3] 	0.00040787192821454
scalar tree_4_3_u08_r14_network.node[3].content_store 	hits[3] 	8
scalar tree_4_3_u08_r14_network.node[3].content_store 	misses[3] 	19606
scalar tree_4_3_u08_r14_network.node[3].content_store 	decision_yes[3] 	19606
scalar tree_4_3_u08_r14_network.node[3].content_store 	decision_no[3] 	0
scalar tree_4_3_u08_r14_network.node[3].content_store 	decision_ratio[3] 	1
scalar tree_4_3_u08_r14_network.node[4].core_layer 	interests[4] 	50561
scalar tree_4_3_u08_r14_network.node[4].core_layer 	data[4] 	48782
scalar tree_4_3_u08_r14_network.node[4].content_store 	p_hit[4] 	0.035224777990942
scalar tree_4_3_u08_r14_network.node[4].content_store 	hits[4] 	1781
scalar tree_4_3_u08_r14_network.node[4].content_store 	misses[4] 	48780
scalar tree_4_3_u08_r14_network.node[4].content_store 	decision_yes[4] 	48782
scalar tree_4_3_u08_r14_network.node[4].content_store 	decision_no[4] 	0
scalar tree_4_3_u08_r14_network.node[4].content_store 	decision_ratio[4] 	1
scalar tree_4_3_u08_r14_network.node[5].core_layer 	interests[5] 	20157
scalar tree_4_3_u08_r14_network.node[5].core_layer 	data[5] 	19727
scalar tree_4_3_u08_r14_network.node[5].content_store 	p_hit[5] 	0.021332539564419
scalar tree_4_3_u08_r14_network.node[5].content_store 	hits[5] 	430
scalar tree_4_3_u08_r14_network.node[5].content_store 	misses[5] 	19727
scalar tree_4_3_u08_r14_network.node[5].content_store 	decision_yes[5] 	19727
scalar tree_4_3_u08_r14_network.node[5].content_store 	decision_no[5] 	0
scalar tree_4_3_u08_r14_network.node[5].content_store 	decision_ratio[5] 	1
scalar tree_4_3_u08_r14_network.node[6].core_layer 	interests[6] 	20221
scalar tree_4_3_u08_r14_network.node[6].core_layer 	data[6] 	19771
scalar tree_4_3_u08_r14_network.node[6].content_store 	p_hit[6] 	0.022303545818703
scalar tree_4_3_u08_r14_network.node[6].content_store 	hits[6] 	451
scalar tree_4_3_u08_r14_network.node[6].content_store 	misses[6] 	19770
scalar tree_4_3_u08_r14_network.node[6].content_store 	decision_yes[6] 	19771
scalar tree_4_3_u08_r14_network.node[6].content_store 	decision_no[6] 	0
scalar tree_4_3_u08_r14_network.node[6].content_store 	decision_ratio[6] 	1
scalar tree_4_3_u08_r14_network.node[7].core_layer 	interests[7] 	50650
scalar tree_4_3_u08_r14_network.node[7].core_layer 	data[7] 	48929
scalar tree_4_3_u08_r14_network.node[7].content_store 	p_hit[7] 	0.033879565646594
scalar tree_4_3_u08_r14_network.node[7].content_store 	hits[7] 	1716
scalar tree_4_3_u08_r14_network.node[7].content_store 	misses[7] 	48934
scalar tree_4_3_u08_r14_network.node[7].content_store 	decision_yes[7] 	48929
scalar tree_4_3_u08_r14_network.node[7].content_store 	decision_no[7] 	0
scalar tree_4_3_u08_r14_network.node[7].content_store 	decision_ratio[7] 	1
scalar tree_4_3_u08_r14_network.node[8].core_layer 	interests[8] 	20155
scalar tree_4_3_u08_r14_network.node[8].core_layer 	data[8] 	19716
scalar tree_4_3_u08_r14_network.node[8].content_store 	p_hit[8] 	0.021781195733069
scalar tree_4_3_u08_r14_network.node[8].content_store 	hits[8] 	439
scalar tree_4_3_u08_r14_network.node[8].content_store 	misses[8] 	19716
scalar tree_4_3_u08_r14_network.node[8].content_store 	decision_yes[8] 	19716
scalar tree_4_3_u08_r14_network.node[8].content_store 	decision_no[8] 	0
scalar tree_4_3_u08_r14_network.node[8].content_store 	decision_ratio[8] 	1
scalar tree_4_3_u08_r14_network.node[9].core_layer 	interests[9] 	20274
scalar tree_4_3_u08_r14_network.node[9].core_layer 	data[9] 	19813
scalar tree_4_3_u08_r14_network.node[9].content_store 	p_hit[9] 	0.022738482785834
scalar tree_4_3_u08_r14_network.node[9].content_store 	hits[9] 	461
scalar tree_4_3_u08_r14_network.node[9].content_store 	misses[9] 	19813
scalar tree_4_3_u08_r14_network.node[9].content_store 	decision_yes[9] 	19813
scalar tree_4_3_u08_r14_network.node[9].content_store 	decision_no[9] 	0
scalar tree_4_3_u08_r14_network.node[9].content_store 	decision_ratio[9] 	1
scalar tree_4_3_u08_r14_network.node[10].core_layer 	interests[10] 	50693
scalar tree_4_3_u08_r14_network.node[10].core_layer 	data[10] 	49021
scalar tree_4_3_u08_r14_network.node[10].content_store 	p_hit[10] 	0.032825044877991
scalar tree_4_3_u08_r14_network.node[10].content_store 	hits[10] 	1664
scalar tree_4_3_u08_r14_network.node[10].content_store 	misses[10] 	49029
scalar tree_4_3_u08_r14_network.node[10].content_store 	decision_yes[10] 	49021
scalar tree_4_3_u08_r14_network.node[10].content_store 	decision_no[10] 	0
scalar tree_4_3_u08_r14_network.node[10].content_store 	decision_ratio[10] 	1
scalar tree_4_3_u08_r14_network.node[11].core_layer 	interests[11] 	20127
scalar tree_4_3_u08_r14_network.node[11].core_layer 	data[11] 	19706
scalar tree_4_3_u08_r14_network.node[11].content_store 	p_hit[11] 	0.020917175932827
scalar tree_4_3_u08_r14_network.node[11].content_store 	hits[11] 	421
scalar tree_4_3_u08_r14_network.node[11].content_store 	misses[11] 	19706
scalar tree_4_3_u08_r14_network.node[11].content_store 	decision_yes[11] 	19706
scalar tree_4_3_u08_r14_network.node[11].content_store 	decision_no[11] 	0
scalar tree_4_3_u08_r14_network.node[11].content_store 	decision_ratio[11] 	1
scalar tree_4_3_u08_r14_network.node[12].core_layer 	interests[12] 	20046
scalar tree_4_3_u08_r14_network.node[12].core_layer 	data[12] 	19614
scalar tree_4_3_u08_r14_network.node[12].content_store 	p_hit[12] 	0.021550434001796
scalar tree_4_3_u08_r14_network.node[12].content_store 	hits[12] 	432
scalar tree_4_3_u08_r14_network.node[12].content_store 	misses[12] 	19614
scalar tree_4_3_u08_r14_network.node[12].content_store 	decision_yes[12] 	19614
scalar tree_4_3_u08_r14_network.node[12].content_store 	decision_no[12] 	0
scalar tree_4_3_u08_r14_network.node[12].content_store 	decision_ratio[12] 	1
scalar tree_4_3_u08_r14_network.node[13].core_layer 	interests[13] 	12056
scalar tree_4_3_u08_r14_network.node[13].core_layer 	data[13] 	10120
scalar tree_4_3_u08_r14_network.node[13].content_store 	p_hit[13] 	0.16066688785667
scalar tree_4_3_u08_r14_network.node[13].content_store 	hits[13] 	1937
scalar tree_4_3_u08_r14_network.node[13].content_store 	misses[13] 	10119
scalar tree_4_3_u08_r14_network.node[13].content_store 	decision_yes[13] 	10120
scalar tree_4_3_u08_r14_network.node[13].content_store 	decision_no[13] 	0
scalar tree_4_3_u08_r14_network.node[13].content_store 	decision_ratio[13] 	1
scalar tree_4_3_u08_r14_network.node[14].core_layer 	interests[14] 	11932
scalar tree_4_3_u08_r14_network.node[14].core_layer 	data[14] 	10039
scalar tree_4_3_u08_r14_network.node[14].content_store 	p_hit[14] 	0.15848139456923
scalar tree_4_3_u08_r14_network.node[14].content_store 	hits[14] 	1891
scalar tree_4_3_u08_r14_network.node[14].content_store 	misses[14] 	10041
scalar tree_4_3_u08_r14_network.node[14].content_store 	decision_yes[14] 	10039
scalar tree_4_3_u08_r14_network.node[14].content_store 	decision_no[14] 	0
scalar tree_4_3_u08_r14_network.node[14].content_store 	decision_ratio[14] 	1
scalar tree_4_3_u08_r14_network.node[15].core_layer 	interests[15] 	11977
scalar tree_4_3_u08_r14_network.node[15].core_layer 	data[15] 	10182
scalar tree_4_3_u08_r14_network.node[15].content_store 	p_hit[15] 	0.14987058528847
scalar tree_4_3_u08_r14_network.node[15].content_store 	hits[15] 	1795
scalar tree_4_3_u08_r14_network.node[15].content_store 	misses[15] 	10182
scalar tree_4_3_u08_r14_network.node[15].content_store 	decision_yes[15] 	10182
scalar tree_4_3_u08_r14_network.node[15].content_store 	decision_no[15] 	0
scalar tree_4_3_u08_r14_network.node[15].content_store 	decision_ratio[15] 	1
scalar tree_4_3_u08_r14_network.node[16].core_layer 	interests[16] 	11854
scalar tree_4_3_u08_r14_network.node[16].core_layer 	data[16] 	10024
scalar tree_4_3_u08_r14_network.node[16].content_store 	p_hit[16] 	0.15429390922895
scalar tree_4_3_u08_r14_network.node[16].content_store 	hits[16] 	1829
scalar tree_4_3_u08_r14_network.node[16].content_store 	misses[16] 	10025
scalar tree_4_3_u08_r14_network.node[16].content_store 	decision_yes[16] 	10024
scalar tree_4_3_u08_r14_network.node[16].content_store 	decision_no[16] 	0
scalar tree_4_3_u08_r14_network.node[16].content_store 	decision_ratio[16] 	1
scalar tree_4_3_u08_r14_network.node[17].core_layer 	interests[17] 	12000
scalar tree_4_3_u08_r14_network.node[17].core_layer 	data[17] 	10106
scalar tree_4_3_u08_r14_network.node[17].content_store 	p_hit[17] 	0.15775
scalar tree_4_3_u08_r14_network.node[17].content_store 	hits[17] 	1893
scalar tree_4_3_u08_r14_network.node[17].content_store 	misses[17] 	10107
scalar tree_4_3_u08_r14_network.node[17].content_store 	decision_yes[17] 	10106
scalar tree_4_3_u08_r14_network.node[17].content_store 	decision_no[17] 	0
scalar tree_4_3_u08_r14_network.node[17].content_store 	decision_ratio[17] 	1
scalar tree_4_3_u08_r14_network.node[18].core_layer 	interests[18] 	11984
scalar tree_4_3_u08_r14_network.node[18].core_layer 	data[18] 	10051
scalar tree_4_3_u08_r14_network.node[18].content_store 	p_hit[18] 	0.16129839786382
scalar tree_4_3_u08_r14_network.node[18].content_store 	hits[18] 	1933
scalar tree_4_3_u08_r14_network.node[18].content_store 	misses[18] 	10051
scalar tree_4_3_u08_r14_network.node[18].content_store 	decision_yes[18] 	10051
scalar tree_4_3_u08_r14_network.node[18].content_store 	decision_no[18] 	0
scalar tree_4_3_u08_r14_network.node[18].content_store 	decision_ratio[18] 	1
scalar tree_4_3_u08_r14_network.node[19].core_layer 	interests[19] 	11947
scalar tree_4_3_u08_r14_network.node[19].core_layer 	data[19] 	10198
scalar tree_4_3_u08_r14_network.node[19].content_store 	p_hit[19] 	0.14639658491672
scalar tree_4_3_u08_r14_network.node[19].content_store 	hits[19] 	1749
scalar tree_4_3_u08_r14_network.node[19].content_store 	misses[19] 	10198
scalar tree_4_3_u08_r14_network.node[19].content_store 	decision_yes[19] 	10198
scalar tree_4_3_u08_r14_network.node[19].content_store 	decision_no[19] 	0
scalar tree_4_3_u08_r14_network.node[19].content_store 	decision_ratio[19] 	1
scalar tree_4_3_u08_r14_network.node[20].core_layer 	interests[20] 	11964
scalar tree_4_3_u08_r14_network.node[20].core_layer 	data[20] 	10102
scalar tree_4_3_u08_r14_network.node[20].content_store 	p_hit[20] 	0.15571715145436
scalar tree_4_3_u08_r14_network.node[20].content_store 	hits[20] 	1863
scalar tree_4_3_u08_r14_network.node[20].content_store 	misses[20] 	10101
scalar tree_4_3_u08_r14_network.node[20].content_store 	decision_yes[20] 	10102
scalar tree_4_3_u08_r14_network.node[20].content_store 	decision_no[20] 	0
scalar tree_4_3_u08_r14_network.node[20].content_store 	decision_ratio[20] 	1
scalar tree_4_3_u08_r14_network.node[21].core_layer 	interests[21] 	12052
scalar tree_4_3_u08_r14_network.node[21].core_layer 	data[21] 	10120
scalar tree_4_3_u08_r14_network.node[21].content_store 	p_hit[21] 	0.16022236973116
scalar tree_4_3_u08_r14_network.node[21].content_store 	hits[21] 	1931
scalar tree_4_3_u08_r14_network.node[21].content_store 	misses[21] 	10121
scalar tree_4_3_u08_r14_network.node[21].content_store 	decision_yes[21] 	10120
scalar tree_4_3_u08_r14_network.node[21].content_store 	decision_no[21] 	0
scalar tree_4_3_u08_r14_network.node[21].content_store 	decision_ratio[21] 	1
scalar tree_4_3_u08_r14_network.node[22].core_layer 	interests[22] 	11983
scalar tree_4_3_u08_r14_network.node[22].core_layer 	data[22] 	10079
scalar tree_4_3_u08_r14_network.node[22].content_store 	p_hit[22] 	0.15880831177501
scalar tree_4_3_u08_r14_network.node[22].content_store 	hits[22] 	1903
scalar tree_4_3_u08_r14_network.node[22].content_store 	misses[22] 	10080
scalar tree_4_3_u08_r14_network.node[22].content_store 	decision_yes[22] 	10079
scalar tree_4_3_u08_r14_network.node[22].content_store 	decision_no[22] 	0
scalar tree_4_3_u08_r14_network.node[22].content_store 	decision_ratio[22] 	1
scalar tree_4_3_u08_r14_network.node[23].core_layer 	interests[23] 	12184
scalar tree_4_3_u08_r14_network.node[23].core_layer 	data[23] 	10257
scalar tree_4_3_u08_r14_network.node[23].content_store 	p_hit[23] 	0.15815824031517
scalar tree_4_3_u08_r14_network.node[23].content_store 	hits[23] 	1927
scalar tree_4_3_u08_r14_network.node[23].content_store 	misses[23] 	10257
scalar tree_4_3_u08_r14_network.node[23].content_store 	decision_yes[23] 	10257
scalar tree_4_3_u08_r14_network.node[23].content_store 	decision_no[23] 	0
scalar tree_4_3_u08_r14_network.node[23].content_store 	decision_ratio[23] 	1
scalar tree_4_3_u08_r14_network.node[24].core_layer 	interests[24] 	12076
scalar tree_4_3_u08_r14_network.node[24].core_layer 	data[24] 	10143
scalar tree_4_3_u08_r14_network.node[24].content_store 	p_hit[24] 	0.16006955945677
scalar tree_4_3_u08_r14_network.node[24].content_store 	hits[24] 	1933
scalar tree_4_3_u08_r14_network.node[24].content_store 	misses[24] 	10143
scalar tree_4_3_u08_r14_network.node[24].content_store 	decision_yes[24] 	10143
scalar tree_4_3_u08_r14_network.node[24].content_store 	decision_no[24] 	0
scalar tree_4_3_u08_r14_network.node[24].content_store 	decision_ratio[24] 	1
scalar tree_4_3_u08_r14_network.node[25].core_layer 	interests[25] 	11877
scalar tree_4_3_u08_r14_network.node[25].core_layer 	data[25] 	10023
scalar tree_4_3_u08_r14_network.node[25].content_store 	p_hit[25] 	0.15601582891303
scalar tree_4_3_u08_r14_network.node[25].content_store 	hits[25] 	1853
scalar tree_4_3_u08_r14_network.node[25].content_store 	misses[25] 	10024
scalar tree_4_3_u08_r14_network.node[25].content_store 	decision_yes[25] 	10023
scalar tree_4_3_u08_r14_network.node[25].content_store 	decision_no[25] 	0
scalar tree_4_3_u08_r14_network.node[25].content_store 	decision_ratio[25] 	1
scalar tree_4_3_u08_r14_network.node[26].core_layer 	interests[26] 	11909
scalar tree_4_3_u08_r14_network.node[26].core_layer 	data[26] 	10110
scalar tree_4_3_u08_r14_network.node[26].content_store 	p_hit[26] 	0.15097825174238
scalar tree_4_3_u08_r14_network.node[26].content_store 	hits[26] 	1798
scalar tree_4_3_u08_r14_network.node[26].content_store 	misses[26] 	10111
scalar tree_4_3_u08_r14_network.node[26].content_store 	decision_yes[26] 	10110
scalar tree_4_3_u08_r14_network.node[26].content_store 	decision_no[26] 	0
scalar tree_4_3_u08_r14_network.node[26].content_store 	decision_ratio[26] 	1
scalar tree_4_3_u08_r14_network.node[27].core_layer 	interests[27] 	11910
scalar tree_4_3_u08_r14_network.node[27].core_layer 	data[27] 	10045
scalar tree_4_3_u08_r14_network.node[27].content_store 	p_hit[27] 	0.15650713685978
scalar tree_4_3_u08_r14_network.node[27].content_store 	hits[27] 	1864
scalar tree_4_3_u08_r14_network.node[27].content_store 	misses[27] 	10046
scalar tree_4_3_u08_r14_network.node[27].content_store 	decision_yes[27] 	10045
scalar tree_4_3_u08_r14_network.node[27].content_store 	decision_no[27] 	0
scalar tree_4_3_u08_r14_network.node[27].content_store 	decision_ratio[27] 	1
scalar tree_4_3_u08_r14_network.node[28].core_layer 	interests[28] 	11999
scalar tree_4_3_u08_r14_network.node[28].core_layer 	data[28] 	10148
scalar tree_4_3_u08_r14_network.node[28].content_store 	p_hit[28] 	0.15426285523794
scalar tree_4_3_u08_r14_network.node[28].content_store 	hits[28] 	1851
scalar tree_4_3_u08_r14_network.node[28].content_store 	misses[28] 	10148
scalar tree_4_3_u08_r14_network.node[28].content_store 	decision_yes[28] 	10148
scalar tree_4_3_u08_r14_network.node[28].content_store 	decision_no[28] 	0
scalar tree_4_3_u08_r14_network.node[28].content_store 	decision_ratio[28] 	1
scalar tree_4_3_u08_r14_network.node[29].core_layer 	interests[29] 	12031
scalar tree_4_3_u08_r14_network.node[29].core_layer 	data[29] 	10143
scalar tree_4_3_u08_r14_network.node[29].content_store 	p_hit[29] 	0.15692793616491
scalar tree_4_3_u08_r14_network.node[29].content_store 	hits[29] 	1888
scalar tree_4_3_u08_r14_network.node[29].content_store 	misses[29] 	10143
scalar tree_4_3_u08_r14_network.node[29].content_store 	decision_yes[29] 	10143
scalar tree_4_3_u08_r14_network.node[29].content_store 	decision_no[29] 	0
scalar tree_4_3_u08_r14_network.node[29].content_store 	decision_ratio[29] 	1
scalar tree_4_3_u08_r14_network.node[30].core_layer 	interests[30] 	11943
scalar tree_4_3_u08_r14_network.node[30].core_layer 	data[30] 	10131
scalar tree_4_3_u08_r14_network.node[30].content_store 	p_hit[30] 	0.15172067319769
scalar tree_4_3_u08_r14_network.node[30].content_store 	hits[30] 	1812
scalar tree_4_3_u08_r14_network.node[30].content_store 	misses[30] 	10131
scalar tree_4_3_u08_r14_network.node[30].content_store 	decision_yes[30] 	10131
scalar tree_4_3_u08_r14_network.node[30].content_store 	decision_no[30] 	0
scalar tree_4_3_u08_r14_network.node[30].content_store 	decision_ratio[30] 	1
scalar tree_4_3_u08_r14_network.node[31].core_layer 	interests[31] 	12103
scalar tree_4_3_u08_r14_network.node[31].core_layer 	data[31] 	10166
scalar tree_4_3_u08_r14_network.node[31].content_store 	p_hit[31] 	0.16004296455424
scalar tree_4_3_u08_r14_network.node[31].content_store 	hits[31] 	1937
scalar tree_4_3_u08_r14_network.node[31].content_store 	misses[31] 	10166
scalar tree_4_3_u08_r14_network.node[31].content_store 	decision_yes[31] 	10166
scalar tree_4_3_u08_r14_network.node[31].content_store 	decision_no[31] 	0
scalar tree_4_3_u08_r14_network.node[31].content_store 	decision_ratio[31] 	1
scalar tree_4_3_u08_r14_network.node[32].core_layer 	interests[32] 	12037
scalar tree_4_3_u08_r14_network.node[32].core_layer 	data[32] 	10157
scalar tree_4_3_u08_r14_network.node[32].content_store 	p_hit[32] 	0.15610201877544
scalar tree_4_3_u08_r14_network.node[32].content_store 	hits[32] 	1879
scalar tree_4_3_u08_r14_network.node[32].content_store 	misses[32] 	10158
scalar tree_4_3_u08_r14_network.node[32].content_store 	decision_yes[32] 	10157
scalar tree_4_3_u08_r14_network.node[32].content_store 	decision_no[32] 	0
scalar tree_4_3_u08_r14_network.node[32].content_store 	decision_ratio[32] 	1
scalar tree_4_3_u08_r14_network.node[33].core_layer 	interests[33] 	12018
scalar tree_4_3_u08_r14_network.node[33].core_layer 	data[33] 	10106
scalar tree_4_3_u08_r14_network.node[33].content_store 	p_hit[33] 	0.15884506573473
scalar tree_4_3_u08_r14_network.node[33].content_store 	hits[33] 	1909
scalar tree_4_3_u08_r14_network.node[33].content_store 	misses[33] 	10109
scalar tree_4_3_u08_r14_network.node[33].content_store 	decision_yes[33] 	10106
scalar tree_4_3_u08_r14_network.node[33].content_store 	decision_no[33] 	0
scalar tree_4_3_u08_r14_network.node[33].content_store 	decision_ratio[33] 	1
scalar tree_4_3_u08_r14_network.node[34].core_layer 	interests[34] 	11885
scalar tree_4_3_u08_r14_network.node[34].core_layer 	data[34] 	9934
scalar tree_4_3_u08_r14_network.node[34].content_store 	p_hit[34] 	0.16415649978965
scalar tree_4_3_u08_r14_network.node[34].content_store 	hits[34] 	1951
scalar tree_4_3_u08_r14_network.node[34].content_store 	misses[34] 	9934
scalar tree_4_3_u08_r14_network.node[34].content_store 	decision_yes[34] 	9934
scalar tree_4_3_u08_r14_network.node[34].content_store 	decision_no[34] 	0
scalar tree_4_3_u08_r14_network.node[34].content_store 	decision_ratio[34] 	1
scalar tree_4_3_u08_r14_network.node[35].core_layer 	interests[35] 	11810
scalar tree_4_3_u08_r14_network.node[35].core_layer 	data[35] 	9936
scalar tree_4_3_u08_r14_network.node[35].content_store 	p_hit[35] 	0.15867908552075
scalar tree_4_3_u08_r14_network.node[35].content_store 	hits[35] 	1874
scalar tree_4_3_u08_r14_network.node[35].content_store 	misses[35] 	9936
scalar tree_4_3_u08_r14_network.node[35].content_store 	decision_yes[35] 	9936
scalar tree_4_3_u08_r14_network.node[35].content_store 	decision_no[35] 	0
scalar tree_4_3_u08_r14_network.node[35].content_store 	decision_ratio[35] 	1
scalar tree_4_3_u08_r14_network.node[36].core_layer 	interests[36] 	12101
scalar tree_4_3_u08_r14_network.node[36].core_layer 	data[36] 	10191
scalar tree_4_3_u08_r14_network.node[36].content_store 	p_hit[36] 	0.15783819519048
scalar tree_4_3_u08_r14_network.node[36].content_store 	hits[36] 	1910
scalar tree_4_3_u08_r14_network.node[36].content_store 	misses[36] 	10191
scalar tree_4_3_u08_r14_network.node[36].content_store 	decision_yes[36] 	10191
scalar tree_4_3_u08_r14_network.node[36].content_store 	decision_no[36] 	0
scalar tree_4_3_u08_r14_network.node[36].content_store 	decision_ratio[36] 	1
scalar tree_4_3_u08_r14_network.node[37].core_layer 	interests[37] 	12098
scalar tree_4_3_u08_r14_network.node[37].core_layer 	data[37] 	10330
scalar tree_4_3_u08_r14_network.node[37].content_store 	p_hit[37] 	0.14613985782774
scalar tree_4_3_u08_r14_network.node[37].content_store 	hits[37] 	1768
scalar tree_4_3_u08_r14_network.node[37].content_store 	misses[37] 	10330
scalar tree_4_3_u08_r14_network.node[37].content_store 	decision_yes[37] 	10330
scalar tree_4_3_u08_r14_network.node[37].content_store 	decision_no[37] 	0
scalar tree_4_3_u08_r14_network.node[37].content_store 	decision_ratio[37] 	1
scalar tree_4_3_u08_r14_network.node[38].core_layer 	interests[38] 	11852
scalar tree_4_3_u08_r14_network.node[38].core_layer 	data[38] 	9949
scalar tree_4_3_u08_r14_network.node[38].content_store 	p_hit[38] 	0.16047924400945
scalar tree_4_3_u08_r14_network.node[38].content_store 	hits[38] 	1902
scalar tree_4_3_u08_r14_network.node[38].content_store 	misses[38] 	9950
scalar tree_4_3_u08_r14_network.node[38].content_store 	decision_yes[38] 	9949
scalar tree_4_3_u08_r14_network.node[38].content_store 	decision_no[38] 	0
scalar tree_4_3_u08_r14_network.node[38].content_store 	decision_ratio[38] 	1
scalar tree_4_3_u08_r14_network.node[39].core_layer 	interests[39] 	11969
scalar tree_4_3_u08_r14_network.node[39].core_layer 	data[39] 	10097
scalar tree_4_3_u08_r14_network.node[39].content_store 	p_hit[39] 	0.15640404377976
scalar tree_4_3_u08_r14_network.node[39].content_store 	hits[39] 	1872
scalar tree_4_3_u08_r14_network.node[39].content_store 	misses[39] 	10097
scalar tree_4_3_u08_r14_network.node[39].content_store 	decision_yes[39] 	10097
scalar tree_4_3_u08_r14_network.node[39].content_store 	decision_no[39] 	0
scalar tree_4_3_u08_r14_network.node[39].content_store 	decision_ratio[39] 	1
scalar tree_4_3_u08_r14_network.client[13] 	hdistance[13] 	3.2184623040557
scalar tree_4_3_u08_r14_network.client[13] 	downloads[13] 	12057
scalar tree_4_3_u08_r14_network.client[13] 	avg_time[13] 	0.004873907793
scalar tree_4_3_u08_r14_network.client[14] 	hdistance[14] 	3.2365465213747
scalar tree_4_3_u08_r14_network.client[14] 	downloads[14] 	11930
scalar tree_4_3_u08_r14_network.client[14] 	avg_time[14] 	0.004899496048
scalar tree_4_3_u08_r14_network.client[15] 	hdistance[15] 	3.2646739584203
scalar tree_4_3_u08_r14_network.client[15] 	downloads[15] 	11977
scalar tree_4_3_u08_r14_network.client[15] 	avg_time[15] 	0.004941481803
scalar tree_4_3_u08_r14_network.client[16] 	hdistance[16] 	3.2496414409854
scalar tree_4_3_u08_r14_network.client[16] 	downloads[16] 	11853
scalar tree_4_3_u08_r14_network.client[16] 	avg_time[16] 	0.004917351109
scalar tree_4_3_u08_r14_network.client[17] 	hdistance[17] 	3.2553546128844
scalar tree_4_3_u08_r14_network.client[17] 	downloads[17] 	11999
scalar tree_4_3_u08_r14_network.client[17] 	avg_time[17] 	0.004926511362
scalar tree_4_3_u08_r14_network.client[18] 	hdistance[18] 	3.2445761014686
scalar tree_4_3_u08_r14_network.client[18] 	downloads[18] 	11984
scalar tree_4_3_u08_r14_network.client[18] 	avg_time[18] 	0.004912904284
scalar tree_4_3_u08_r14_network.client[19] 	hdistance[19] 	3.2779777349962
scalar tree_4_3_u08_r14_network.client[19] 	downloads[19] 	11947
scalar tree_4_3_u08_r14_network.client[19] 	avg_time[19] 	0.004963095061
scalar tree_4_3_u08_r14_network.client[20] 	hdistance[20] 	3.2662766402006
scalar tree_4_3_u08_r14_network.client[20] 	downloads[20] 	11965
scalar tree_4_3_u08_r14_network.client[20] 	avg_time[20] 	0.004944175461
scalar tree_4_3_u08_r14_network.client[21] 	hdistance[21] 	3.2387353746577
scalar tree_4_3_u08_r14_network.client[21] 	downloads[21] 	12051
scalar tree_4_3_u08_r14_network.client[21] 	avg_time[21] 	0.004906227132
scalar tree_4_3_u08_r14_network.client[22] 	hdistance[22] 	3.2330996494742
scalar tree_4_3_u08_r14_network.client[22] 	downloads[22] 	11982
scalar tree_4_3_u08_r14_network.client[22] 	avg_time[22] 	0.004890940427
scalar tree_4_3_u08_r14_network.client[23] 	hdistance[23] 	3.2431057124097
scalar tree_4_3_u08_r14_network.client[23] 	downloads[23] 	12184
scalar tree_4_3_u08_r14_network.client[23] 	avg_time[23] 	0.004905348596
scalar tree_4_3_u08_r14_network.client[24] 	hdistance[24] 	3.2355912553826
scalar tree_4_3_u08_r14_network.client[24] 	downloads[24] 	12076
scalar tree_4_3_u08_r14_network.client[24] 	avg_time[24] 	0.004894214472
scalar tree_4_3_u08_r14_network.client[25] 	hdistance[25] 	3.245453014483
scalar tree_4_3_u08_r14_network.client[25] 	downloads[25] 	11876
scalar tree_4_3_u08_r14_network.client[25] 	avg_time[25] 	0.004912092785
scalar tree_4_3_u08_r14_network.client[26] 	hdistance[26] 	3.2845146120255
scalar tree_4_3_u08_r14_network.client[26] 	downloads[26] 	11908
scalar tree_4_3_u08_r14_network.client[26] 	avg_time[26] 	0.00498252622
scalar tree_4_3_u08_r14_network.client[27] 	hdistance[27] 	3.2641699554959
scalar tree_4_3_u08_r14_network.client[27] 	downloads[27] 	11909
scalar tree_4_3_u08_r14_network.client[27] 	avg_time[27] 	0.004951637487
scalar tree_4_3_u08_r14_network.client[28] 	hdistance[28] 	3.239603300275
scalar tree_4_3_u08_r14_network.client[28] 	downloads[28] 	11999
scalar tree_4_3_u08_r14_network.client[28] 	avg_time[28] 	0.004907362886
scalar tree_4_3_u08_r14_network.client[29] 	hdistance[29] 	3.2525974565705
scalar tree_4_3_u08_r14_network.client[29] 	downloads[29] 	12031
scalar tree_4_3_u08_r14_network.client[29] 	avg_time[29] 	0.004933917684
scalar tree_4_3_u08_r14_network.client[30] 	hdistance[30] 	3.282089927154
scalar tree_4_3_u08_r14_network.client[30] 	downloads[30] 	11943
scalar tree_4_3_u08_r14_network.client[30] 	avg_time[30] 	0.004980152755
scalar tree_4_3_u08_r14_network.client[31] 	hdistance[31] 	3.2291167479137
scalar tree_4_3_u08_r14_network.client[31] 	downloads[31] 	12103
scalar tree_4_3_u08_r14_network.client[31] 	avg_time[31] 	0.004888075844
scalar tree_4_3_u08_r14_network.client[32] 	hdistance[32] 	3.2406114988368
scalar tree_4_3_u08_r14_network.client[32] 	downloads[32] 	12036
scalar tree_4_3_u08_r14_network.client[32] 	avg_time[32] 	0.004905404923
scalar tree_4_3_u08_r14_network.client[33] 	hdistance[33] 	3.2346233874324
scalar tree_4_3_u08_r14_network.client[33] 	downloads[33] 	12015
scalar tree_4_3_u08_r14_network.client[33] 	avg_time[33] 	0.004895705042
scalar tree_4_3_u08_r14_network.client[34] 	hdistance[34] 	3.2094236432478
scalar tree_4_3_u08_r14_network.client[34] 	downloads[34] 	11885
scalar tree_4_3_u08_r14_network.client[34] 	avg_time[34] 	0.004859191336
scalar tree_4_3_u08_r14_network.client[35] 	hdistance[35] 	3.2530906011854
scalar tree_4_3_u08_r14_network.client[35] 	downloads[35] 	11810
scalar tree_4_3_u08_r14_network.client[35] 	avg_time[35] 	0.004938185031
scalar tree_4_3_u08_r14_network.client[36] 	hdistance[36] 	3.2570035534253
scalar tree_4_3_u08_r14_network.client[36] 	downloads[36] 	12101
scalar tree_4_3_u08_r14_network.client[36] 	avg_time[36] 	0.00494289425
scalar tree_4_3_u08_r14_network.client[37] 	hdistance[37] 	3.2924450322367
scalar tree_4_3_u08_r14_network.client[37] 	downloads[37] 	12098
scalar tree_4_3_u08_r14_network.client[37] 	avg_time[37] 	0.004980323345
scalar tree_4_3_u08_r14_network.client[38] 	hdistance[38] 	3.2797232301072
scalar tree_4_3_u08_r14_network.client[38] 	downloads[38] 	11851
scalar tree_4_3_u08_r14_network.client[38] 	avg_time[38] 	0.004963468447
scalar tree_4_3_u08_r14_network.client[39] 	hdistance[39] 	3.2981034338708
scalar tree_4_3_u08_r14_network.client[39] 	downloads[39] 	11969
scalar tree_4_3_u08_r14_network.client[39] 	avg_time[39] 	0.004988383665
