version 2
run General-163-20160820-16:37:18-2644
attr a 0.9
attr cd lce
attr configname General
attr cr lru
attr datetime 20160820-16:37:18
attr experiment General
attr fsize 1
attr inifile hw5115/scenario_A/SPR-LCE.ini
attr iterationvars "$name=tree_4_3, $un=08, $rep=4, $cd=lce, $cr=lru, $fsize=1, $a=0.9, $sl=spr, $ttl=1000, $variance=0.05"
attr iterationvars2 "$name=tree_4_3, $un=08, $rep=4, $cd=lce, $cr=lru, $fsize=1, $a=0.9, $sl=spr, $ttl=1000, $variance=0.05, $repetition=0"
attr measurement "$name=tree_4_3, $un=08, $rep=4, $cd=lce, $cr=lru, $fsize=1, $a=0.9, $sl=spr, $ttl=1000, $variance=0.05"
attr name tree_4_3
attr network networks.${name}_u${un}_r${rep}_network
attr processid 2644
attr rep 4
attr repetition 0
attr replication #0
attr resultdir results
attr runnumber 163
attr seedset 4
attr sl spr
attr ttl 1000
attr un 08
attr variance 0.05

scalar . 	a 	0.9
scalar . 	fsize 	1
scalar . 	rep 	4
scalar . 	ttl 	1000
scalar . 	un 	08
scalar . 	variance 	0.05
scalar tree_4_3_u08_r4_network.content_distribution 	repo-0 	0
scalar tree_4_3_u08_r4_network.content_distribution 	client-0 	13
scalar tree_4_3_u08_r4_network.content_distribution 	client-1 	14
scalar tree_4_3_u08_r4_network.content_distribution 	client-2 	15
scalar tree_4_3_u08_r4_network.content_distribution 	client-3 	16
scalar tree_4_3_u08_r4_network.content_distribution 	client-4 	17
scalar tree_4_3_u08_r4_network.content_distribution 	client-5 	18
scalar tree_4_3_u08_r4_network.content_distribution 	client-6 	19
scalar tree_4_3_u08_r4_network.content_distribution 	client-7 	20
scalar tree_4_3_u08_r4_network.content_distribution 	client-8 	21
scalar tree_4_3_u08_r4_network.content_distribution 	client-9 	22
scalar tree_4_3_u08_r4_network.content_distribution 	client-10 	23
scalar tree_4_3_u08_r4_network.content_distribution 	client-11 	24
scalar tree_4_3_u08_r4_network.content_distribution 	client-12 	25
scalar tree_4_3_u08_r4_network.content_distribution 	client-13 	26
scalar tree_4_3_u08_r4_network.content_distribution 	client-14 	27
scalar tree_4_3_u08_r4_network.content_distribution 	client-15 	28
scalar tree_4_3_u08_r4_network.content_distribution 	client-16 	29
scalar tree_4_3_u08_r4_network.content_distribution 	client-17 	30
scalar tree_4_3_u08_r4_network.content_distribution 	client-18 	31
scalar tree_4_3_u08_r4_network.content_distribution 	client-19 	32
scalar tree_4_3_u08_r4_network.content_distribution 	client-20 	33
scalar tree_4_3_u08_r4_network.content_distribution 	client-21 	34
scalar tree_4_3_u08_r4_network.content_distribution 	client-22 	35
scalar tree_4_3_u08_r4_network.content_distribution 	client-23 	36
scalar tree_4_3_u08_r4_network.content_distribution 	client-24 	37
scalar tree_4_3_u08_r4_network.content_distribution 	client-25 	38
scalar tree_4_3_u08_r4_network.content_distribution 	client-26 	39
scalar tree_4_3_u08_r4_network.content_distribution 	repo-0_card 	100000
scalar tree_4_3_u08_r4_network.content_distribution 	repo-0_price 	0
scalar tree_4_3_u08_r4_network.statistics 	stabilization_time 	959.9
scalar tree_4_3_u08_r4_network.statistics 	p_hit 	0.11196503330404
scalar tree_4_3_u08_r4_network.statistics 	interests 	28220.15
scalar tree_4_3_u08_r4_network.statistics 	data 	20075.225
scalar tree_4_3_u08_r4_network.statistics 	hdistance 	3.2554584840757
scalar tree_4_3_u08_r4_network.statistics 	avg_time 	0.004930059345
scalar tree_4_3_u08_r4_network.statistics 	downloads 	325758
scalar tree_4_3_u08_r4_network.statistics 	total_cost 	0
scalar tree_4_3_u08_r4_network.statistics 	total_replicas 	100000
scalar tree_4_3_u08_r4_network.statistics 	inner_hit 	0.20995954051781
scalar tree_4_3_u08_r4_network.node[0].core_layer 	interests[0] 	260779
scalar tree_4_3_u08_r4_network.node[0].core_layer 	repo_load[0] 	257362
scalar tree_4_3_u08_r4_network.node[0].core_layer 	data[0] 	0
scalar tree_4_3_u08_r4_network.node[0].core_layer 	repo_int[0] 	257362
scalar tree_4_3_u08_r4_network.node[0].content_store 	p_hit[0] 	0.013103048941824
scalar tree_4_3_u08_r4_network.node[0].content_store 	hits[0] 	3417
scalar tree_4_3_u08_r4_network.node[0].content_store 	misses[0] 	257362
scalar tree_4_3_u08_r4_network.node[0].content_store 	decision_yes[0] 	257362
scalar tree_4_3_u08_r4_network.node[0].content_store 	decision_no[0] 	0
scalar tree_4_3_u08_r4_network.node[0].content_store 	decision_ratio[0] 	1
scalar tree_4_3_u08_r4_network.node[1].core_layer 	interests[1] 	187635
scalar tree_4_3_u08_r4_network.node[1].core_layer 	data[1] 	182757
scalar tree_4_3_u08_r4_network.node[1].content_store 	p_hit[1] 	0.025826738081914
scalar tree_4_3_u08_r4_network.node[1].content_store 	hits[1] 	4846
scalar tree_4_3_u08_r4_network.node[1].content_store 	misses[1] 	182789
scalar tree_4_3_u08_r4_network.node[1].content_store 	decision_yes[1] 	182757
scalar tree_4_3_u08_r4_network.node[1].content_store 	decision_no[1] 	0
scalar tree_4_3_u08_r4_network.node[1].content_store 	decision_ratio[1] 	1
scalar tree_4_3_u08_r4_network.node[2].core_layer 	interests[2] 	69202
scalar tree_4_3_u08_r4_network.node[2].core_layer 	data[2] 	67638
scalar tree_4_3_u08_r4_network.node[2].content_store 	p_hit[2] 	0.022528250628595
scalar tree_4_3_u08_r4_network.node[2].content_store 	hits[2] 	1559
scalar tree_4_3_u08_r4_network.node[2].content_store 	misses[2] 	67643
scalar tree_4_3_u08_r4_network.node[2].content_store 	decision_yes[2] 	67638
scalar tree_4_3_u08_r4_network.node[2].content_store 	decision_no[2] 	0
scalar tree_4_3_u08_r4_network.node[2].content_store 	decision_ratio[2] 	1
scalar tree_4_3_u08_r4_network.node[3].core_layer 	interests[3] 	10386
scalar tree_4_3_u08_r4_network.node[3].core_layer 	data[3] 	10384
scalar tree_4_3_u08_r4_network.node[3].content_store 	p_hit[3] 	0.00019256691700366
scalar tree_4_3_u08_r4_network.node[3].content_store 	hits[3] 	2
scalar tree_4_3_u08_r4_network.node[3].content_store 	misses[3] 	10384
scalar tree_4_3_u08_r4_network.node[3].content_store 	decision_yes[3] 	10384
scalar tree_4_3_u08_r4_network.node[3].content_store 	decision_no[3] 	0
scalar tree_4_3_u08_r4_network.node[3].content_store 	decision_ratio[3] 	1
scalar tree_4_3_u08_r4_network.node[4].core_layer 	interests[4] 	40665
scalar tree_4_3_u08_r4_network.node[4].core_layer 	data[4] 	39374
scalar tree_4_3_u08_r4_network.node[4].content_store 	p_hit[4] 	0.031624246895365
scalar tree_4_3_u08_r4_network.node[4].content_store 	hits[4] 	1286
scalar tree_4_3_u08_r4_network.node[4].content_store 	misses[4] 	39379
scalar tree_4_3_u08_r4_network.node[4].content_store 	decision_yes[4] 	39374
scalar tree_4_3_u08_r4_network.node[4].content_store 	decision_no[4] 	0
scalar tree_4_3_u08_r4_network.node[4].content_store 	decision_ratio[4] 	1
scalar tree_4_3_u08_r4_network.node[5].core_layer 	interests[5] 	30436
scalar tree_4_3_u08_r4_network.node[5].core_layer 	data[5] 	29558
scalar tree_4_3_u08_r4_network.node[5].content_store 	p_hit[5] 	0.028748850045998
scalar tree_4_3_u08_r4_network.node[5].content_store 	hits[5] 	875
scalar tree_4_3_u08_r4_network.node[5].content_store 	misses[5] 	29561
scalar tree_4_3_u08_r4_network.node[5].content_store 	decision_yes[5] 	29558
scalar tree_4_3_u08_r4_network.node[5].content_store 	decision_no[5] 	0
scalar tree_4_3_u08_r4_network.node[5].content_store 	decision_ratio[5] 	1
scalar tree_4_3_u08_r4_network.node[6].core_layer 	interests[6] 	20164
scalar tree_4_3_u08_r4_network.node[6].core_layer 	data[6] 	19697
scalar tree_4_3_u08_r4_network.node[6].content_store 	p_hit[6] 	0.023160087284269
scalar tree_4_3_u08_r4_network.node[6].content_store 	hits[6] 	467
scalar tree_4_3_u08_r4_network.node[6].content_store 	misses[6] 	19697
scalar tree_4_3_u08_r4_network.node[6].content_store 	decision_yes[6] 	19697
scalar tree_4_3_u08_r4_network.node[6].content_store 	decision_no[6] 	0
scalar tree_4_3_u08_r4_network.node[6].content_store 	decision_ratio[6] 	1
scalar tree_4_3_u08_r4_network.node[7].core_layer 	interests[7] 	51084
scalar tree_4_3_u08_r4_network.node[7].core_layer 	data[7] 	49387
scalar tree_4_3_u08_r4_network.node[7].content_store 	p_hit[7] 	0.033082765640905
scalar tree_4_3_u08_r4_network.node[7].content_store 	hits[7] 	1690
scalar tree_4_3_u08_r4_network.node[7].content_store 	misses[7] 	49394
scalar tree_4_3_u08_r4_network.node[7].content_store 	decision_yes[7] 	49387
scalar tree_4_3_u08_r4_network.node[7].content_store 	decision_no[7] 	0
scalar tree_4_3_u08_r4_network.node[7].content_store 	decision_ratio[7] 	1
scalar tree_4_3_u08_r4_network.node[8].core_layer 	interests[8] 	30494
scalar tree_4_3_u08_r4_network.node[8].core_layer 	data[8] 	29658
scalar tree_4_3_u08_r4_network.node[8].content_store 	p_hit[8] 	0.027382435889027
scalar tree_4_3_u08_r4_network.node[8].content_store 	hits[8] 	835
scalar tree_4_3_u08_r4_network.node[8].content_store 	misses[8] 	29659
scalar tree_4_3_u08_r4_network.node[8].content_store 	decision_yes[8] 	29658
scalar tree_4_3_u08_r4_network.node[8].content_store 	decision_no[8] 	0
scalar tree_4_3_u08_r4_network.node[8].content_store 	decision_ratio[8] 	1
scalar tree_4_3_u08_r4_network.node[9].core_layer 	interests[9] 	10197
scalar tree_4_3_u08_r4_network.node[9].core_layer 	data[9] 	10166
scalar tree_4_3_u08_r4_network.node[9].content_store 	p_hit[9] 	0.0030401098362263
scalar tree_4_3_u08_r4_network.node[9].content_store 	hits[9] 	31
scalar tree_4_3_u08_r4_network.node[9].content_store 	misses[9] 	10166
scalar tree_4_3_u08_r4_network.node[9].content_store 	decision_yes[9] 	10166
scalar tree_4_3_u08_r4_network.node[9].content_store 	decision_no[9] 	0
scalar tree_4_3_u08_r4_network.node[9].content_store 	decision_ratio[9] 	1
scalar tree_4_3_u08_r4_network.node[10].core_layer 	interests[10] 	51314
scalar tree_4_3_u08_r4_network.node[10].core_layer 	data[10] 	49619
scalar tree_4_3_u08_r4_network.node[10].content_store 	p_hit[10] 	0.032914993958764
scalar tree_4_3_u08_r4_network.node[10].content_store 	hits[10] 	1689
scalar tree_4_3_u08_r4_network.node[10].content_store 	misses[10] 	49625
scalar tree_4_3_u08_r4_network.node[10].content_store 	decision_yes[10] 	49619
scalar tree_4_3_u08_r4_network.node[10].content_store 	decision_no[10] 	0
scalar tree_4_3_u08_r4_network.node[10].content_store 	decision_ratio[10] 	1
scalar tree_4_3_u08_r4_network.node[11].core_layer 	interests[11] 	30245
scalar tree_4_3_u08_r4_network.node[11].core_layer 	data[11] 	29378
scalar tree_4_3_u08_r4_network.node[11].content_store 	p_hit[11] 	0.028566705240536
scalar tree_4_3_u08_r4_network.node[11].content_store 	hits[11] 	864
scalar tree_4_3_u08_r4_network.node[11].content_store 	misses[11] 	29381
scalar tree_4_3_u08_r4_network.node[11].content_store 	decision_yes[11] 	29378
scalar tree_4_3_u08_r4_network.node[11].content_store 	decision_no[11] 	0
scalar tree_4_3_u08_r4_network.node[11].content_store 	decision_ratio[11] 	1
scalar tree_4_3_u08_r4_network.node[12].core_layer 	interests[12] 	10411
scalar tree_4_3_u08_r4_network.node[12].core_layer 	data[12] 	10386
scalar tree_4_3_u08_r4_network.node[12].content_store 	p_hit[12] 	0.002401306310633
scalar tree_4_3_u08_r4_network.node[12].content_store 	hits[12] 	25
scalar tree_4_3_u08_r4_network.node[12].content_store 	misses[12] 	10386
scalar tree_4_3_u08_r4_network.node[12].content_store 	decision_yes[12] 	10386
scalar tree_4_3_u08_r4_network.node[12].content_store 	decision_no[12] 	0
scalar tree_4_3_u08_r4_network.node[12].content_store 	decision_ratio[12] 	1
scalar tree_4_3_u08_r4_network.node[13].core_layer 	interests[13] 	12127
scalar tree_4_3_u08_r4_network.node[13].core_layer 	data[13] 	10218
scalar tree_4_3_u08_r4_network.node[13].content_store 	p_hit[13] 	0.15741733322339
scalar tree_4_3_u08_r4_network.node[13].content_store 	hits[13] 	1909
scalar tree_4_3_u08_r4_network.node[13].content_store 	misses[13] 	10218
scalar tree_4_3_u08_r4_network.node[13].content_store 	decision_yes[13] 	10218
scalar tree_4_3_u08_r4_network.node[13].content_store 	decision_no[13] 	0
scalar tree_4_3_u08_r4_network.node[13].content_store 	decision_ratio[13] 	1
scalar tree_4_3_u08_r4_network.node[14].core_layer 	interests[14] 	12060
scalar tree_4_3_u08_r4_network.node[14].core_layer 	data[14] 	10251
scalar tree_4_3_u08_r4_network.node[14].content_store 	p_hit[14] 	0.15
scalar tree_4_3_u08_r4_network.node[14].content_store 	hits[14] 	1809
scalar tree_4_3_u08_r4_network.node[14].content_store 	misses[14] 	10251
scalar tree_4_3_u08_r4_network.node[14].content_store 	decision_yes[14] 	10251
scalar tree_4_3_u08_r4_network.node[14].content_store 	decision_no[14] 	0
scalar tree_4_3_u08_r4_network.node[14].content_store 	decision_ratio[14] 	1
scalar tree_4_3_u08_r4_network.node[15].core_layer 	interests[15] 	11982
scalar tree_4_3_u08_r4_network.node[15].core_layer 	data[15] 	10015
scalar tree_4_3_u08_r4_network.node[15].content_store 	p_hit[15] 	0.1640794525121
scalar tree_4_3_u08_r4_network.node[15].content_store 	hits[15] 	1966
scalar tree_4_3_u08_r4_network.node[15].content_store 	misses[15] 	10016
scalar tree_4_3_u08_r4_network.node[15].content_store 	decision_yes[15] 	10015
scalar tree_4_3_u08_r4_network.node[15].content_store 	decision_no[15] 	0
scalar tree_4_3_u08_r4_network.node[15].content_store 	decision_ratio[15] 	1
scalar tree_4_3_u08_r4_network.node[16].core_layer 	interests[16] 	12122
scalar tree_4_3_u08_r4_network.node[16].core_layer 	data[16] 	10181
scalar tree_4_3_u08_r4_network.node[16].content_store 	p_hit[16] 	0.16003959742617
scalar tree_4_3_u08_r4_network.node[16].content_store 	hits[16] 	1940
scalar tree_4_3_u08_r4_network.node[16].content_store 	misses[16] 	10182
scalar tree_4_3_u08_r4_network.node[16].content_store 	decision_yes[16] 	10181
scalar tree_4_3_u08_r4_network.node[16].content_store 	decision_no[16] 	0
scalar tree_4_3_u08_r4_network.node[16].content_store 	decision_ratio[16] 	1
scalar tree_4_3_u08_r4_network.node[17].core_layer 	interests[17] 	12025
scalar tree_4_3_u08_r4_network.node[17].core_layer 	data[17] 	10097
scalar tree_4_3_u08_r4_network.node[17].content_store 	p_hit[17] 	0.16008316008316
scalar tree_4_3_u08_r4_network.node[17].content_store 	hits[17] 	1925
scalar tree_4_3_u08_r4_network.node[17].content_store 	misses[17] 	10100
scalar tree_4_3_u08_r4_network.node[17].content_store 	decision_yes[17] 	10097
scalar tree_4_3_u08_r4_network.node[17].content_store 	decision_no[17] 	0
scalar tree_4_3_u08_r4_network.node[17].content_store 	decision_ratio[17] 	1
scalar tree_4_3_u08_r4_network.node[18].core_layer 	interests[18] 	12025
scalar tree_4_3_u08_r4_network.node[18].core_layer 	data[18] 	10165
scalar tree_4_3_u08_r4_network.node[18].content_store 	p_hit[18] 	0.15459459459459
scalar tree_4_3_u08_r4_network.node[18].content_store 	hits[18] 	1859
scalar tree_4_3_u08_r4_network.node[18].content_store 	misses[18] 	10166
scalar tree_4_3_u08_r4_network.node[18].content_store 	decision_yes[18] 	10165
scalar tree_4_3_u08_r4_network.node[18].content_store 	decision_no[18] 	0
scalar tree_4_3_u08_r4_network.node[18].content_store 	decision_ratio[18] 	1
scalar tree_4_3_u08_r4_network.node[19].core_layer 	interests[19] 	11946
scalar tree_4_3_u08_r4_network.node[19].core_layer 	data[19] 	10091
scalar tree_4_3_u08_r4_network.node[19].content_store 	p_hit[19] 	0.15528210279591
scalar tree_4_3_u08_r4_network.node[19].content_store 	hits[19] 	1855
scalar tree_4_3_u08_r4_network.node[19].content_store 	misses[19] 	10091
scalar tree_4_3_u08_r4_network.node[19].content_store 	decision_yes[19] 	10091
scalar tree_4_3_u08_r4_network.node[19].content_store 	decision_no[19] 	0
scalar tree_4_3_u08_r4_network.node[19].content_store 	decision_ratio[19] 	1
scalar tree_4_3_u08_r4_network.node[20].core_layer 	interests[20] 	12089
scalar tree_4_3_u08_r4_network.node[20].core_layer 	data[20] 	10172
scalar tree_4_3_u08_r4_network.node[20].content_store 	p_hit[20] 	0.15849119033832
scalar tree_4_3_u08_r4_network.node[20].content_store 	hits[20] 	1916
scalar tree_4_3_u08_r4_network.node[20].content_store 	misses[20] 	10173
scalar tree_4_3_u08_r4_network.node[20].content_store 	decision_yes[20] 	10172
scalar tree_4_3_u08_r4_network.node[20].content_store 	decision_no[20] 	0
scalar tree_4_3_u08_r4_network.node[20].content_store 	decision_ratio[20] 	1
scalar tree_4_3_u08_r4_network.node[21].core_layer 	interests[21] 	11972
scalar tree_4_3_u08_r4_network.node[21].core_layer 	data[21] 	10073
scalar tree_4_3_u08_r4_network.node[21].content_store 	p_hit[21] 	0.1586201135984
scalar tree_4_3_u08_r4_network.node[21].content_store 	hits[21] 	1899
scalar tree_4_3_u08_r4_network.node[21].content_store 	misses[21] 	10073
scalar tree_4_3_u08_r4_network.node[21].content_store 	decision_yes[21] 	10073
scalar tree_4_3_u08_r4_network.node[21].content_store 	decision_no[21] 	0
scalar tree_4_3_u08_r4_network.node[21].content_store 	decision_ratio[21] 	1
scalar tree_4_3_u08_r4_network.node[22].core_layer 	interests[22] 	11960
scalar tree_4_3_u08_r4_network.node[22].core_layer 	data[22] 	10141
scalar tree_4_3_u08_r4_network.node[22].content_store 	p_hit[22] 	0.15192307692308
scalar tree_4_3_u08_r4_network.node[22].content_store 	hits[22] 	1817
scalar tree_4_3_u08_r4_network.node[22].content_store 	misses[22] 	10143
scalar tree_4_3_u08_r4_network.node[22].content_store 	decision_yes[22] 	10141
scalar tree_4_3_u08_r4_network.node[22].content_store 	decision_no[22] 	0
scalar tree_4_3_u08_r4_network.node[22].content_store 	decision_ratio[22] 	1
scalar tree_4_3_u08_r4_network.node[23].core_layer 	interests[23] 	12113
scalar tree_4_3_u08_r4_network.node[23].core_layer 	data[23] 	10228
scalar tree_4_3_u08_r4_network.node[23].content_store 	p_hit[23] 	0.15553537521671
scalar tree_4_3_u08_r4_network.node[23].content_store 	hits[23] 	1884
scalar tree_4_3_u08_r4_network.node[23].content_store 	misses[23] 	10229
scalar tree_4_3_u08_r4_network.node[23].content_store 	decision_yes[23] 	10228
scalar tree_4_3_u08_r4_network.node[23].content_store 	decision_no[23] 	0
scalar tree_4_3_u08_r4_network.node[23].content_store 	decision_ratio[23] 	1
scalar tree_4_3_u08_r4_network.node[24].core_layer 	interests[24] 	12143
scalar tree_4_3_u08_r4_network.node[24].core_layer 	data[24] 	10234
scalar tree_4_3_u08_r4_network.node[24].content_store 	p_hit[24] 	0.15671580334349
scalar tree_4_3_u08_r4_network.node[24].content_store 	hits[24] 	1903
scalar tree_4_3_u08_r4_network.node[24].content_store 	misses[24] 	10240
scalar tree_4_3_u08_r4_network.node[24].content_store 	decision_yes[24] 	10234
scalar tree_4_3_u08_r4_network.node[24].content_store 	decision_no[24] 	0
scalar tree_4_3_u08_r4_network.node[24].content_store 	decision_ratio[24] 	1
scalar tree_4_3_u08_r4_network.node[25].core_layer 	interests[25] 	12162
scalar tree_4_3_u08_r4_network.node[25].core_layer 	data[25] 	10176
scalar tree_4_3_u08_r4_network.node[25].content_store 	p_hit[25] 	0.16313106396974
scalar tree_4_3_u08_r4_network.node[25].content_store 	hits[25] 	1984
scalar tree_4_3_u08_r4_network.node[25].content_store 	misses[25] 	10178
scalar tree_4_3_u08_r4_network.node[25].content_store 	decision_yes[25] 	10176
scalar tree_4_3_u08_r4_network.node[25].content_store 	decision_no[25] 	0
scalar tree_4_3_u08_r4_network.node[25].content_store 	decision_ratio[25] 	1
scalar tree_4_3_u08_r4_network.node[26].core_layer 	interests[26] 	11943
scalar tree_4_3_u08_r4_network.node[26].core_layer 	data[26] 	10046
scalar tree_4_3_u08_r4_network.node[26].content_store 	p_hit[26] 	0.15858661977728
scalar tree_4_3_u08_r4_network.node[26].content_store 	hits[26] 	1894
scalar tree_4_3_u08_r4_network.node[26].content_store 	misses[26] 	10049
scalar tree_4_3_u08_r4_network.node[26].content_store 	decision_yes[26] 	10046
scalar tree_4_3_u08_r4_network.node[26].content_store 	decision_no[26] 	0
scalar tree_4_3_u08_r4_network.node[26].content_store 	decision_ratio[26] 	1
scalar tree_4_3_u08_r4_network.node[27].core_layer 	interests[27] 	12052
scalar tree_4_3_u08_r4_network.node[27].core_layer 	data[27] 	10153
scalar tree_4_3_u08_r4_network.node[27].content_store 	p_hit[27] 	0.15748423498175
scalar tree_4_3_u08_r4_network.node[27].content_store 	hits[27] 	1898
scalar tree_4_3_u08_r4_network.node[27].content_store 	misses[27] 	10154
scalar tree_4_3_u08_r4_network.node[27].content_store 	decision_yes[27] 	10153
scalar tree_4_3_u08_r4_network.node[27].content_store 	decision_no[27] 	0
scalar tree_4_3_u08_r4_network.node[27].content_store 	decision_ratio[27] 	1
scalar tree_4_3_u08_r4_network.node[28].core_layer 	interests[28] 	12235
scalar tree_4_3_u08_r4_network.node[28].core_layer 	data[28] 	10305
scalar tree_4_3_u08_r4_network.node[28].content_store 	p_hit[28] 	0.15749897834083
scalar tree_4_3_u08_r4_network.node[28].content_store 	hits[28] 	1927
scalar tree_4_3_u08_r4_network.node[28].content_store 	misses[28] 	10308
scalar tree_4_3_u08_r4_network.node[28].content_store 	decision_yes[28] 	10305
scalar tree_4_3_u08_r4_network.node[28].content_store 	decision_no[28] 	0
scalar tree_4_3_u08_r4_network.node[28].content_store 	decision_ratio[28] 	1
scalar tree_4_3_u08_r4_network.node[29].core_layer 	interests[29] 	12209
scalar tree_4_3_u08_r4_network.node[29].core_layer 	data[29] 	10294
scalar tree_4_3_u08_r4_network.node[29].content_store 	p_hit[29] 	0.15676959619952
scalar tree_4_3_u08_r4_network.node[29].content_store 	hits[29] 	1914
scalar tree_4_3_u08_r4_network.node[29].content_store 	misses[29] 	10295
scalar tree_4_3_u08_r4_network.node[29].content_store 	decision_yes[29] 	10294
scalar tree_4_3_u08_r4_network.node[29].content_store 	decision_no[29] 	0
scalar tree_4_3_u08_r4_network.node[29].content_store 	decision_ratio[29] 	1
scalar tree_4_3_u08_r4_network.node[30].core_layer 	interests[30] 	12009
scalar tree_4_3_u08_r4_network.node[30].core_layer 	data[30] 	10197
scalar tree_4_3_u08_r4_network.node[30].content_store 	p_hit[30] 	0.15080356399367
scalar tree_4_3_u08_r4_network.node[30].content_store 	hits[30] 	1811
scalar tree_4_3_u08_r4_network.node[30].content_store 	misses[30] 	10198
scalar tree_4_3_u08_r4_network.node[30].content_store 	decision_yes[30] 	10197
scalar tree_4_3_u08_r4_network.node[30].content_store 	decision_no[30] 	0
scalar tree_4_3_u08_r4_network.node[30].content_store 	decision_ratio[30] 	1
scalar tree_4_3_u08_r4_network.node[31].core_layer 	interests[31] 	12069
scalar tree_4_3_u08_r4_network.node[31].core_layer 	data[31] 	10199
scalar tree_4_3_u08_r4_network.node[31].content_store 	p_hit[31] 	0.154776700638
scalar tree_4_3_u08_r4_network.node[31].content_store 	hits[31] 	1868
scalar tree_4_3_u08_r4_network.node[31].content_store 	misses[31] 	10201
scalar tree_4_3_u08_r4_network.node[31].content_store 	decision_yes[31] 	10199
scalar tree_4_3_u08_r4_network.node[31].content_store 	decision_no[31] 	0
scalar tree_4_3_u08_r4_network.node[31].content_store 	decision_ratio[31] 	1
scalar tree_4_3_u08_r4_network.node[32].core_layer 	interests[32] 	12124
scalar tree_4_3_u08_r4_network.node[32].core_layer 	data[32] 	10271
scalar tree_4_3_u08_r4_network.node[32].content_store 	p_hit[32] 	0.1528373474101
scalar tree_4_3_u08_r4_network.node[32].content_store 	hits[32] 	1853
scalar tree_4_3_u08_r4_network.node[32].content_store 	misses[32] 	10271
scalar tree_4_3_u08_r4_network.node[32].content_store 	decision_yes[32] 	10271
scalar tree_4_3_u08_r4_network.node[32].content_store 	decision_no[32] 	0
scalar tree_4_3_u08_r4_network.node[32].content_store 	decision_ratio[32] 	1
scalar tree_4_3_u08_r4_network.node[33].core_layer 	interests[33] 	12082
scalar tree_4_3_u08_r4_network.node[33].core_layer 	data[33] 	10247
scalar tree_4_3_u08_r4_network.node[33].content_store 	p_hit[33] 	0.15163052474756
scalar tree_4_3_u08_r4_network.node[33].content_store 	hits[33] 	1832
scalar tree_4_3_u08_r4_network.node[33].content_store 	misses[33] 	10250
scalar tree_4_3_u08_r4_network.node[33].content_store 	decision_yes[33] 	10247
scalar tree_4_3_u08_r4_network.node[33].content_store 	decision_no[33] 	0
scalar tree_4_3_u08_r4_network.node[33].content_store 	decision_ratio[33] 	1
scalar tree_4_3_u08_r4_network.node[34].core_layer 	interests[34] 	12116
scalar tree_4_3_u08_r4_network.node[34].core_layer 	data[34] 	10283
scalar tree_4_3_u08_r4_network.node[34].content_store 	p_hit[34] 	0.15128755364807
scalar tree_4_3_u08_r4_network.node[34].content_store 	hits[34] 	1833
scalar tree_4_3_u08_r4_network.node[34].content_store 	misses[34] 	10283
scalar tree_4_3_u08_r4_network.node[34].content_store 	decision_yes[34] 	10283
scalar tree_4_3_u08_r4_network.node[34].content_store 	decision_no[34] 	0
scalar tree_4_3_u08_r4_network.node[34].content_store 	decision_ratio[34] 	1
scalar tree_4_3_u08_r4_network.node[35].core_layer 	interests[35] 	11817
scalar tree_4_3_u08_r4_network.node[35].core_layer 	data[35] 	9962
scalar tree_4_3_u08_r4_network.node[35].content_store 	p_hit[35] 	0.15689261233816
scalar tree_4_3_u08_r4_network.node[35].content_store 	hits[35] 	1854
scalar tree_4_3_u08_r4_network.node[35].content_store 	misses[35] 	9963
scalar tree_4_3_u08_r4_network.node[35].content_store 	decision_yes[35] 	9962
scalar tree_4_3_u08_r4_network.node[35].content_store 	decision_no[35] 	0
scalar tree_4_3_u08_r4_network.node[35].content_store 	decision_ratio[35] 	1
scalar tree_4_3_u08_r4_network.node[36].core_layer 	interests[36] 	11965
scalar tree_4_3_u08_r4_network.node[36].core_layer 	data[36] 	10062
scalar tree_4_3_u08_r4_network.node[36].content_store 	p_hit[36] 	0.15896364396155
scalar tree_4_3_u08_r4_network.node[36].content_store 	hits[36] 	1902
scalar tree_4_3_u08_r4_network.node[36].content_store 	misses[36] 	10063
scalar tree_4_3_u08_r4_network.node[36].content_store 	decision_yes[36] 	10062
scalar tree_4_3_u08_r4_network.node[36].content_store 	decision_no[36] 	0
scalar tree_4_3_u08_r4_network.node[36].content_store 	decision_ratio[36] 	1
scalar tree_4_3_u08_r4_network.node[37].core_layer 	interests[37] 	12173
scalar tree_4_3_u08_r4_network.node[37].core_layer 	data[37] 	10314
scalar tree_4_3_u08_r4_network.node[37].content_store 	p_hit[37] 	0.15255072701881
scalar tree_4_3_u08_r4_network.node[37].content_store 	hits[37] 	1857
scalar tree_4_3_u08_r4_network.node[37].content_store 	misses[37] 	10316
scalar tree_4_3_u08_r4_network.node[37].content_store 	decision_yes[37] 	10314
scalar tree_4_3_u08_r4_network.node[37].content_store 	decision_no[37] 	0
scalar tree_4_3_u08_r4_network.node[37].content_store 	decision_ratio[37] 	1
scalar tree_4_3_u08_r4_network.node[38].core_layer 	interests[38] 	12000
scalar tree_4_3_u08_r4_network.node[38].core_layer 	data[38] 	10221
scalar tree_4_3_u08_r4_network.node[38].content_store 	p_hit[38] 	0.14825
scalar tree_4_3_u08_r4_network.node[38].content_store 	hits[38] 	1779
scalar tree_4_3_u08_r4_network.node[38].content_store 	misses[38] 	10221
scalar tree_4_3_u08_r4_network.node[38].content_store 	decision_yes[38] 	10221
scalar tree_4_3_u08_r4_network.node[38].content_store 	decision_no[38] 	0
scalar tree_4_3_u08_r4_network.node[38].content_store 	decision_ratio[38] 	1
scalar tree_4_3_u08_r4_network.node[39].core_layer 	interests[39] 	12274
scalar tree_4_3_u08_r4_network.node[39].core_layer 	data[39] 	10411
scalar tree_4_3_u08_r4_network.node[39].content_store 	p_hit[39] 	0.15178425941014
scalar tree_4_3_u08_r4_network.node[39].content_store 	hits[39] 	1863
scalar tree_4_3_u08_r4_network.node[39].content_store 	misses[39] 	10411
scalar tree_4_3_u08_r4_network.node[39].content_store 	decision_yes[39] 	10411
scalar tree_4_3_u08_r4_network.node[39].content_store 	decision_no[39] 	0
scalar tree_4_3_u08_r4_network.node[39].content_store 	decision_ratio[39] 	1
scalar tree_4_3_u08_r4_network.client[13] 	hdistance[13] 	3.2374866001484
scalar tree_4_3_u08_r4_network.client[13] 	downloads[13] 	12127
scalar tree_4_3_u08_r4_network.client[13] 	avg_time[13] 	0.004900880646
scalar tree_4_3_u08_r4_network.client[14] 	hdistance[14] 	3.2706467661692
scalar tree_4_3_u08_r4_network.client[14] 	downloads[14] 	12060
scalar tree_4_3_u08_r4_network.client[14] 	avg_time[14] 	0.004950699416
scalar tree_4_3_u08_r4_network.client[15] 	hdistance[15] 	3.2157582839496
scalar tree_4_3_u08_r4_network.client[15] 	downloads[15] 	11981
scalar tree_4_3_u08_r4_network.client[15] 	avg_time[15] 	0.004864623719
scalar tree_4_3_u08_r4_network.client[16] 	hdistance[16] 	3.2362016335286
scalar tree_4_3_u08_r4_network.client[16] 	downloads[16] 	12121
scalar tree_4_3_u08_r4_network.client[16] 	avg_time[16] 	0.004898113966
scalar tree_4_3_u08_r4_network.client[17] 	hdistance[17] 	3.2279154882715
scalar tree_4_3_u08_r4_network.client[17] 	downloads[17] 	12022
scalar tree_4_3_u08_r4_network.client[17] 	avg_time[17] 	0.004890525146
scalar tree_4_3_u08_r4_network.client[18] 	hdistance[18] 	3.2613938789089
scalar tree_4_3_u08_r4_network.client[18] 	downloads[18] 	12024
scalar tree_4_3_u08_r4_network.client[18] 	avg_time[18] 	0.004937251471
scalar tree_4_3_u08_r4_network.client[19] 	hdistance[19] 	3.2594173782019
scalar tree_4_3_u08_r4_network.client[19] 	downloads[19] 	11946
scalar tree_4_3_u08_r4_network.client[19] 	avg_time[19] 	0.00493654568
scalar tree_4_3_u08_r4_network.client[20] 	hdistance[20] 	3.2362673726009
scalar tree_4_3_u08_r4_network.client[20] 	downloads[20] 	12088
scalar tree_4_3_u08_r4_network.client[20] 	avg_time[20] 	0.004900609239
scalar tree_4_3_u08_r4_network.client[21] 	hdistance[21] 	3.2523387905112
scalar tree_4_3_u08_r4_network.client[21] 	downloads[21] 	11972
scalar tree_4_3_u08_r4_network.client[21] 	avg_time[21] 	0.004923216061
scalar tree_4_3_u08_r4_network.client[22] 	hdistance[22] 	3.2552266265262
scalar tree_4_3_u08_r4_network.client[22] 	downloads[22] 	11958
scalar tree_4_3_u08_r4_network.client[22] 	avg_time[22] 	0.004928224692
scalar tree_4_3_u08_r4_network.client[23] 	hdistance[23] 	3.2492569352708
scalar tree_4_3_u08_r4_network.client[23] 	downloads[23] 	12112
scalar tree_4_3_u08_r4_network.client[23] 	avg_time[23] 	0.004917982854
scalar tree_4_3_u08_r4_network.client[24] 	hdistance[24] 	3.245447804235
scalar tree_4_3_u08_r4_network.client[24] 	downloads[24] 	12137
scalar tree_4_3_u08_r4_network.client[24] 	avg_time[24] 	0.004911007065
scalar tree_4_3_u08_r4_network.client[25] 	hdistance[25] 	3.2172697368421
scalar tree_4_3_u08_r4_network.client[25] 	downloads[25] 	12160
scalar tree_4_3_u08_r4_network.client[25] 	avg_time[25] 	0.004868681169
scalar tree_4_3_u08_r4_network.client[26] 	hdistance[26] 	3.2472361809045
scalar tree_4_3_u08_r4_network.client[26] 	downloads[26] 	11940
scalar tree_4_3_u08_r4_network.client[26] 	avg_time[26] 	0.004922879199
scalar tree_4_3_u08_r4_network.client[27] 	hdistance[27] 	3.2523442038005
scalar tree_4_3_u08_r4_network.client[27] 	downloads[27] 	12051
scalar tree_4_3_u08_r4_network.client[27] 	avg_time[27] 	0.004932179483
scalar tree_4_3_u08_r4_network.client[28] 	hdistance[28] 	3.2389633747547
scalar tree_4_3_u08_r4_network.client[28] 	downloads[28] 	12232
scalar tree_4_3_u08_r4_network.client[28] 	avg_time[28] 	0.004904089878
scalar tree_4_3_u08_r4_network.client[29] 	hdistance[29] 	3.250245740498
scalar tree_4_3_u08_r4_network.client[29] 	downloads[29] 	12208
scalar tree_4_3_u08_r4_network.client[29] 	avg_time[29] 	0.004928479883
scalar tree_4_3_u08_r4_network.client[30] 	hdistance[30] 	3.3110426382412
scalar tree_4_3_u08_r4_network.client[30] 	downloads[30] 	12008
scalar tree_4_3_u08_r4_network.client[30] 	avg_time[30] 	0.005024425043
scalar tree_4_3_u08_r4_network.client[31] 	hdistance[31] 	3.2473688572139
scalar tree_4_3_u08_r4_network.client[31] 	downloads[31] 	12067
scalar tree_4_3_u08_r4_network.client[31] 	avg_time[31] 	0.00491817809
scalar tree_4_3_u08_r4_network.client[32] 	hdistance[32] 	3.256351039261
scalar tree_4_3_u08_r4_network.client[32] 	downloads[32] 	12124
scalar tree_4_3_u08_r4_network.client[32] 	avg_time[32] 	0.004929535748
scalar tree_4_3_u08_r4_network.client[33] 	hdistance[33] 	3.264674227999
scalar tree_4_3_u08_r4_network.client[33] 	downloads[33] 	12079
scalar tree_4_3_u08_r4_network.client[33] 	avg_time[33] 	0.004938320774
scalar tree_4_3_u08_r4_network.client[34] 	hdistance[34] 	3.2707164080555
scalar tree_4_3_u08_r4_network.client[34] 	downloads[34] 	12116
scalar tree_4_3_u08_r4_network.client[34] 	avg_time[34] 	0.004947707593
scalar tree_4_3_u08_r4_network.client[35] 	hdistance[35] 	3.2462762356127
scalar tree_4_3_u08_r4_network.client[35] 	downloads[35] 	11816
scalar tree_4_3_u08_r4_network.client[35] 	avg_time[35] 	0.004924998956
scalar tree_4_3_u08_r4_network.client[36] 	hdistance[36] 	3.2458207957205
scalar tree_4_3_u08_r4_network.client[36] 	downloads[36] 	11964
scalar tree_4_3_u08_r4_network.client[36] 	avg_time[36] 	0.004919677974
scalar tree_4_3_u08_r4_network.client[37] 	hdistance[37] 	3.2584011174102
scalar tree_4_3_u08_r4_network.client[37] 	downloads[37] 	12171
scalar tree_4_3_u08_r4_network.client[37] 	avg_time[37] 	0.00493089045
scalar tree_4_3_u08_r4_network.client[38] 	hdistance[38] 	3.2846666666667
scalar tree_4_3_u08_r4_network.client[38] 	downloads[38] 	12000
scalar tree_4_3_u08_r4_network.client[38] 	avg_time[38] 	0.004981059973
scalar tree_4_3_u08_r4_network.client[39] 	hdistance[39] 	3.3586442887404
scalar tree_4_3_u08_r4_network.client[39] 	downloads[39] 	12274
scalar tree_4_3_u08_r4_network.client[39] 	avg_time[39] 	0.005080818149
