version 2
run General-166-20160820-16:40:55-2644
attr a 0.9
attr cd lce
attr configname General
attr cr lru
attr datetime 20160820-16:40:55
attr experiment General
attr fsize 1
attr inifile hw5115/scenario_A/SPR-LCE.ini
attr iterationvars "$name=tree_4_3, $un=08, $rep=7, $cd=lce, $cr=lru, $fsize=1, $a=0.9, $sl=spr, $ttl=1000, $variance=0.05"
attr iterationvars2 "$name=tree_4_3, $un=08, $rep=7, $cd=lce, $cr=lru, $fsize=1, $a=0.9, $sl=spr, $ttl=1000, $variance=0.05, $repetition=0"
attr measurement "$name=tree_4_3, $un=08, $rep=7, $cd=lce, $cr=lru, $fsize=1, $a=0.9, $sl=spr, $ttl=1000, $variance=0.05"
attr name tree_4_3
attr network networks.${name}_u${un}_r${rep}_network
attr processid 2644
attr rep 7
attr repetition 0
attr replication #0
attr resultdir results
attr runnumber 166
attr seedset 7
attr sl spr
attr ttl 1000
attr un 08
attr variance 0.05

scalar . 	a 	0.9
scalar . 	fsize 	1
scalar . 	rep 	7
scalar . 	ttl 	1000
scalar . 	un 	08
scalar . 	variance 	0.05
scalar tree_4_3_u08_r7_network.content_distribution 	repo-0 	0
scalar tree_4_3_u08_r7_network.content_distribution 	client-0 	13
scalar tree_4_3_u08_r7_network.content_distribution 	client-1 	14
scalar tree_4_3_u08_r7_network.content_distribution 	client-2 	15
scalar tree_4_3_u08_r7_network.content_distribution 	client-3 	16
scalar tree_4_3_u08_r7_network.content_distribution 	client-4 	17
scalar tree_4_3_u08_r7_network.content_distribution 	client-5 	18
scalar tree_4_3_u08_r7_network.content_distribution 	client-6 	19
scalar tree_4_3_u08_r7_network.content_distribution 	client-7 	20
scalar tree_4_3_u08_r7_network.content_distribution 	client-8 	21
scalar tree_4_3_u08_r7_network.content_distribution 	client-9 	22
scalar tree_4_3_u08_r7_network.content_distribution 	client-10 	23
scalar tree_4_3_u08_r7_network.content_distribution 	client-11 	24
scalar tree_4_3_u08_r7_network.content_distribution 	client-12 	25
scalar tree_4_3_u08_r7_network.content_distribution 	client-13 	26
scalar tree_4_3_u08_r7_network.content_distribution 	client-14 	27
scalar tree_4_3_u08_r7_network.content_distribution 	client-15 	28
scalar tree_4_3_u08_r7_network.content_distribution 	client-16 	29
scalar tree_4_3_u08_r7_network.content_distribution 	client-17 	30
scalar tree_4_3_u08_r7_network.content_distribution 	client-18 	31
scalar tree_4_3_u08_r7_network.content_distribution 	client-19 	32
scalar tree_4_3_u08_r7_network.content_distribution 	client-20 	33
scalar tree_4_3_u08_r7_network.content_distribution 	client-21 	34
scalar tree_4_3_u08_r7_network.content_distribution 	client-22 	35
scalar tree_4_3_u08_r7_network.content_distribution 	client-23 	36
scalar tree_4_3_u08_r7_network.content_distribution 	client-24 	37
scalar tree_4_3_u08_r7_network.content_distribution 	client-25 	38
scalar tree_4_3_u08_r7_network.content_distribution 	client-26 	39
scalar tree_4_3_u08_r7_network.content_distribution 	repo-0_card 	100000
scalar tree_4_3_u08_r7_network.content_distribution 	repo-0_price 	0
scalar tree_4_3_u08_r7_network.statistics 	stabilization_time 	558.4
scalar tree_4_3_u08_r7_network.statistics 	p_hit 	0.11241840045346
scalar tree_4_3_u08_r7_network.statistics 	interests 	28067.175
scalar tree_4_3_u08_r7_network.statistics 	data 	19963.575
scalar tree_4_3_u08_r7_network.statistics 	hdistance 	3.2540164298709
scalar tree_4_3_u08_r7_network.statistics 	avg_time 	0.004927436758
scalar tree_4_3_u08_r7_network.statistics 	downloads 	324136
scalar tree_4_3_u08_r7_network.statistics 	total_cost 	0
scalar tree_4_3_u08_r7_network.statistics 	total_replicas 	100000
scalar tree_4_3_u08_r7_network.statistics 	inner_hit 	0.2100013574549
scalar tree_4_3_u08_r7_network.node[0].core_layer 	interests[0] 	259549
scalar tree_4_3_u08_r7_network.node[0].core_layer 	repo_load[0] 	256067
scalar tree_4_3_u08_r7_network.node[0].core_layer 	data[0] 	0
scalar tree_4_3_u08_r7_network.node[0].core_layer 	repo_int[0] 	256067
scalar tree_4_3_u08_r7_network.node[0].content_store 	p_hit[0] 	0.013415578561274
scalar tree_4_3_u08_r7_network.node[0].content_store 	hits[0] 	3482
scalar tree_4_3_u08_r7_network.node[0].content_store 	misses[0] 	256067
scalar tree_4_3_u08_r7_network.node[0].content_store 	decision_yes[0] 	256067
scalar tree_4_3_u08_r7_network.node[0].content_store 	decision_no[0] 	0
scalar tree_4_3_u08_r7_network.node[0].content_store 	decision_ratio[0] 	1
scalar tree_4_3_u08_r7_network.node[1].core_layer 	interests[1] 	186801
scalar tree_4_3_u08_r7_network.node[1].core_layer 	data[1] 	182027
scalar tree_4_3_u08_r7_network.node[1].content_store 	p_hit[1] 	0.025379949786136
scalar tree_4_3_u08_r7_network.node[1].content_store 	hits[1] 	4741
scalar tree_4_3_u08_r7_network.node[1].content_store 	misses[1] 	182060
scalar tree_4_3_u08_r7_network.node[1].content_store 	decision_yes[1] 	182027
scalar tree_4_3_u08_r7_network.node[1].content_store 	decision_no[1] 	0
scalar tree_4_3_u08_r7_network.node[1].content_store 	decision_ratio[1] 	1
scalar tree_4_3_u08_r7_network.node[2].core_layer 	interests[2] 	58913
scalar tree_4_3_u08_r7_network.node[2].core_layer 	data[2] 	57621
scalar tree_4_3_u08_r7_network.node[2].content_store 	p_hit[2] 	0.02193064349125
scalar tree_4_3_u08_r7_network.node[2].content_store 	hits[2] 	1292
scalar tree_4_3_u08_r7_network.node[2].content_store 	misses[2] 	57621
scalar tree_4_3_u08_r7_network.node[2].content_store 	decision_yes[2] 	57621
scalar tree_4_3_u08_r7_network.node[2].content_store 	decision_no[2] 	0
scalar tree_4_3_u08_r7_network.node[2].content_store 	decision_ratio[2] 	1
scalar tree_4_3_u08_r7_network.node[3].core_layer 	interests[3] 	19907
scalar tree_4_3_u08_r7_network.node[3].core_layer 	data[3] 	19901
scalar tree_4_3_u08_r7_network.node[3].content_store 	p_hit[3] 	0.0003014015170543
scalar tree_4_3_u08_r7_network.node[3].content_store 	hits[3] 	6
scalar tree_4_3_u08_r7_network.node[3].content_store 	misses[3] 	19901
scalar tree_4_3_u08_r7_network.node[3].content_store 	decision_yes[3] 	19901
scalar tree_4_3_u08_r7_network.node[3].content_store 	decision_no[3] 	0
scalar tree_4_3_u08_r7_network.node[3].content_store 	decision_ratio[3] 	1
scalar tree_4_3_u08_r7_network.node[4].core_layer 	interests[4] 	51003
scalar tree_4_3_u08_r7_network.node[4].core_layer 	data[4] 	49383
scalar tree_4_3_u08_r7_network.node[4].content_store 	p_hit[4] 	0.031664804031135
scalar tree_4_3_u08_r7_network.node[4].content_store 	hits[4] 	1615
scalar tree_4_3_u08_r7_network.node[4].content_store 	misses[4] 	49388
scalar tree_4_3_u08_r7_network.node[4].content_store 	decision_yes[4] 	49383
scalar tree_4_3_u08_r7_network.node[4].content_store 	decision_no[4] 	0
scalar tree_4_3_u08_r7_network.node[4].content_store 	decision_ratio[4] 	1
scalar tree_4_3_u08_r7_network.node[5].core_layer 	interests[5] 	30552
scalar tree_4_3_u08_r7_network.node[5].core_layer 	data[5] 	29640
scalar tree_4_3_u08_r7_network.node[5].content_store 	p_hit[5] 	0.029752553024352
scalar tree_4_3_u08_r7_network.node[5].content_store 	hits[5] 	909
scalar tree_4_3_u08_r7_network.node[5].content_store 	misses[5] 	29643
scalar tree_4_3_u08_r7_network.node[5].content_store 	decision_yes[5] 	29640
scalar tree_4_3_u08_r7_network.node[5].content_store 	decision_no[5] 	0
scalar tree_4_3_u08_r7_network.node[5].content_store 	decision_ratio[5] 	1
scalar tree_4_3_u08_r7_network.node[6].core_layer 	interests[6] 	10105
scalar tree_4_3_u08_r7_network.node[6].core_layer 	data[6] 	10071
scalar tree_4_3_u08_r7_network.node[6].content_store 	p_hit[6] 	0.0033646709549728
scalar tree_4_3_u08_r7_network.node[6].content_store 	hits[6] 	34
scalar tree_4_3_u08_r7_network.node[6].content_store 	misses[6] 	10071
scalar tree_4_3_u08_r7_network.node[6].content_store 	decision_yes[6] 	10071
scalar tree_4_3_u08_r7_network.node[6].content_store 	decision_no[6] 	0
scalar tree_4_3_u08_r7_network.node[6].content_store 	decision_ratio[6] 	1
scalar tree_4_3_u08_r7_network.node[7].core_layer 	interests[7] 	50315
scalar tree_4_3_u08_r7_network.node[7].core_layer 	data[7] 	48643
scalar tree_4_3_u08_r7_network.node[7].content_store 	p_hit[7] 	0.033230646924376
scalar tree_4_3_u08_r7_network.node[7].content_store 	hits[7] 	1672
scalar tree_4_3_u08_r7_network.node[7].content_store 	misses[7] 	48643
scalar tree_4_3_u08_r7_network.node[7].content_store 	decision_yes[7] 	48643
scalar tree_4_3_u08_r7_network.node[7].content_store 	decision_no[7] 	0
scalar tree_4_3_u08_r7_network.node[7].content_store 	decision_ratio[7] 	1
scalar tree_4_3_u08_r7_network.node[8].core_layer 	interests[8] 	30113
scalar tree_4_3_u08_r7_network.node[8].core_layer 	data[8] 	29248
scalar tree_4_3_u08_r7_network.node[8].content_store 	p_hit[8] 	0.028625510576827
scalar tree_4_3_u08_r7_network.node[8].content_store 	hits[8] 	862
scalar tree_4_3_u08_r7_network.node[8].content_store 	misses[8] 	29251
scalar tree_4_3_u08_r7_network.node[8].content_store 	decision_yes[8] 	29248
scalar tree_4_3_u08_r7_network.node[8].content_store 	decision_no[8] 	0
scalar tree_4_3_u08_r7_network.node[8].content_store 	decision_ratio[8] 	1
scalar tree_4_3_u08_r7_network.node[9].core_layer 	interests[9] 	10034
scalar tree_4_3_u08_r7_network.node[9].core_layer 	data[9] 	10004
scalar tree_4_3_u08_r7_network.node[9].content_store 	p_hit[9] 	0.0029898345624875
scalar tree_4_3_u08_r7_network.node[9].content_store 	hits[9] 	30
scalar tree_4_3_u08_r7_network.node[9].content_store 	misses[9] 	10004
scalar tree_4_3_u08_r7_network.node[9].content_store 	decision_yes[9] 	10004
scalar tree_4_3_u08_r7_network.node[9].content_store 	decision_no[9] 	0
scalar tree_4_3_u08_r7_network.node[9].content_store 	decision_ratio[9] 	1
scalar tree_4_3_u08_r7_network.node[10].core_layer 	interests[10] 	50789
scalar tree_4_3_u08_r7_network.node[10].core_layer 	data[10] 	49064
scalar tree_4_3_u08_r7_network.node[10].content_store 	p_hit[10] 	0.033944358030282
scalar tree_4_3_u08_r7_network.node[10].content_store 	hits[10] 	1724
scalar tree_4_3_u08_r7_network.node[10].content_store 	misses[10] 	49065
scalar tree_4_3_u08_r7_network.node[10].content_store 	decision_yes[10] 	49064
scalar tree_4_3_u08_r7_network.node[10].content_store 	decision_no[10] 	0
scalar tree_4_3_u08_r7_network.node[10].content_store 	decision_ratio[10] 	1
scalar tree_4_3_u08_r7_network.node[11].core_layer 	interests[11] 	20146
scalar tree_4_3_u08_r7_network.node[11].core_layer 	data[11] 	19661
scalar tree_4_3_u08_r7_network.node[11].content_store 	p_hit[11] 	0.024074257917204
scalar tree_4_3_u08_r7_network.node[11].content_store 	hits[11] 	485
scalar tree_4_3_u08_r7_network.node[11].content_store 	misses[11] 	19661
scalar tree_4_3_u08_r7_network.node[11].content_store 	decision_yes[11] 	19661
scalar tree_4_3_u08_r7_network.node[11].content_store 	decision_no[11] 	0
scalar tree_4_3_u08_r7_network.node[11].content_store 	decision_ratio[11] 	1
scalar tree_4_3_u08_r7_network.node[12].core_layer 	interests[12] 	20311
scalar tree_4_3_u08_r7_network.node[12].core_layer 	data[12] 	19907
scalar tree_4_3_u08_r7_network.node[12].content_store 	p_hit[12] 	0.019890699620895
scalar tree_4_3_u08_r7_network.node[12].content_store 	hits[12] 	404
scalar tree_4_3_u08_r7_network.node[12].content_store 	misses[12] 	19907
scalar tree_4_3_u08_r7_network.node[12].content_store 	decision_yes[12] 	19907
scalar tree_4_3_u08_r7_network.node[12].content_store 	decision_no[12] 	0
scalar tree_4_3_u08_r7_network.node[12].content_store 	decision_ratio[12] 	1
scalar tree_4_3_u08_r7_network.node[13].core_layer 	interests[13] 	11919
scalar tree_4_3_u08_r7_network.node[13].core_layer 	data[13] 	10048
scalar tree_4_3_u08_r7_network.node[13].content_store 	p_hit[13] 	0.15689235674134
scalar tree_4_3_u08_r7_network.node[13].content_store 	hits[13] 	1870
scalar tree_4_3_u08_r7_network.node[13].content_store 	misses[13] 	10049
scalar tree_4_3_u08_r7_network.node[13].content_store 	decision_yes[13] 	10048
scalar tree_4_3_u08_r7_network.node[13].content_store 	decision_no[13] 	0
scalar tree_4_3_u08_r7_network.node[13].content_store 	decision_ratio[13] 	1
scalar tree_4_3_u08_r7_network.node[14].core_layer 	interests[14] 	11969
scalar tree_4_3_u08_r7_network.node[14].core_layer 	data[14] 	10112
scalar tree_4_3_u08_r7_network.node[14].content_store 	p_hit[14] 	0.15506725708079
scalar tree_4_3_u08_r7_network.node[14].content_store 	hits[14] 	1856
scalar tree_4_3_u08_r7_network.node[14].content_store 	misses[14] 	10113
scalar tree_4_3_u08_r7_network.node[14].content_store 	decision_yes[14] 	10112
scalar tree_4_3_u08_r7_network.node[14].content_store 	decision_no[14] 	0
scalar tree_4_3_u08_r7_network.node[14].content_store 	decision_ratio[14] 	1
scalar tree_4_3_u08_r7_network.node[15].core_layer 	interests[15] 	12016
scalar tree_4_3_u08_r7_network.node[15].core_layer 	data[15] 	10181
scalar tree_4_3_u08_r7_network.node[15].content_store 	p_hit[15] 	0.15271304926764
scalar tree_4_3_u08_r7_network.node[15].content_store 	hits[15] 	1835
scalar tree_4_3_u08_r7_network.node[15].content_store 	misses[15] 	10181
scalar tree_4_3_u08_r7_network.node[15].content_store 	decision_yes[15] 	10181
scalar tree_4_3_u08_r7_network.node[15].content_store 	decision_no[15] 	0
scalar tree_4_3_u08_r7_network.node[15].content_store 	decision_ratio[15] 	1
scalar tree_4_3_u08_r7_network.node[16].core_layer 	interests[16] 	12142
scalar tree_4_3_u08_r7_network.node[16].core_layer 	data[16] 	10262
scalar tree_4_3_u08_r7_network.node[16].content_store 	p_hit[16] 	0.15475210014825
scalar tree_4_3_u08_r7_network.node[16].content_store 	hits[16] 	1879
scalar tree_4_3_u08_r7_network.node[16].content_store 	misses[16] 	10263
scalar tree_4_3_u08_r7_network.node[16].content_store 	decision_yes[16] 	10262
scalar tree_4_3_u08_r7_network.node[16].content_store 	decision_no[16] 	0
scalar tree_4_3_u08_r7_network.node[16].content_store 	decision_ratio[16] 	1
scalar tree_4_3_u08_r7_network.node[17].core_layer 	interests[17] 	12107
scalar tree_4_3_u08_r7_network.node[17].core_layer 	data[17] 	10177
scalar tree_4_3_u08_r7_network.node[17].content_store 	p_hit[17] 	0.15941191046502
scalar tree_4_3_u08_r7_network.node[17].content_store 	hits[17] 	1930
scalar tree_4_3_u08_r7_network.node[17].content_store 	misses[17] 	10177
scalar tree_4_3_u08_r7_network.node[17].content_store 	decision_yes[17] 	10177
scalar tree_4_3_u08_r7_network.node[17].content_store 	decision_no[17] 	0
scalar tree_4_3_u08_r7_network.node[17].content_store 	decision_ratio[17] 	1
scalar tree_4_3_u08_r7_network.node[18].core_layer 	interests[18] 	12154
scalar tree_4_3_u08_r7_network.node[18].core_layer 	data[18] 	10209
scalar tree_4_3_u08_r7_network.node[18].content_store 	p_hit[18] 	0.1599473424387
scalar tree_4_3_u08_r7_network.node[18].content_store 	hits[18] 	1944
scalar tree_4_3_u08_r7_network.node[18].content_store 	misses[18] 	10210
scalar tree_4_3_u08_r7_network.node[18].content_store 	decision_yes[18] 	10209
scalar tree_4_3_u08_r7_network.node[18].content_store 	decision_no[18] 	0
scalar tree_4_3_u08_r7_network.node[18].content_store 	decision_ratio[18] 	1
scalar tree_4_3_u08_r7_network.node[19].core_layer 	interests[19] 	12306
scalar tree_4_3_u08_r7_network.node[19].core_layer 	data[19] 	10400
scalar tree_4_3_u08_r7_network.node[19].content_store 	p_hit[19] 	0.15480253534861
scalar tree_4_3_u08_r7_network.node[19].content_store 	hits[19] 	1905
scalar tree_4_3_u08_r7_network.node[19].content_store 	misses[19] 	10401
scalar tree_4_3_u08_r7_network.node[19].content_store 	decision_yes[19] 	10400
scalar tree_4_3_u08_r7_network.node[19].content_store 	decision_no[19] 	0
scalar tree_4_3_u08_r7_network.node[19].content_store 	decision_ratio[19] 	1
scalar tree_4_3_u08_r7_network.node[20].core_layer 	interests[20] 	11873
scalar tree_4_3_u08_r7_network.node[20].core_layer 	data[20] 	10166
scalar tree_4_3_u08_r7_network.node[20].content_store 	p_hit[20] 	0.14377158258233
scalar tree_4_3_u08_r7_network.node[20].content_store 	hits[20] 	1707
scalar tree_4_3_u08_r7_network.node[20].content_store 	misses[20] 	10166
scalar tree_4_3_u08_r7_network.node[20].content_store 	decision_yes[20] 	10166
scalar tree_4_3_u08_r7_network.node[20].content_store 	decision_no[20] 	0
scalar tree_4_3_u08_r7_network.node[20].content_store 	decision_ratio[20] 	1
scalar tree_4_3_u08_r7_network.node[21].core_layer 	interests[21] 	11967
scalar tree_4_3_u08_r7_network.node[21].core_layer 	data[21] 	10105
scalar tree_4_3_u08_r7_network.node[21].content_store 	p_hit[21] 	0.1555945516838
scalar tree_4_3_u08_r7_network.node[21].content_store 	hits[21] 	1862
scalar tree_4_3_u08_r7_network.node[21].content_store 	misses[21] 	10105
scalar tree_4_3_u08_r7_network.node[21].content_store 	decision_yes[21] 	10105
scalar tree_4_3_u08_r7_network.node[21].content_store 	decision_no[21] 	0
scalar tree_4_3_u08_r7_network.node[21].content_store 	decision_ratio[21] 	1
scalar tree_4_3_u08_r7_network.node[22].core_layer 	interests[22] 	12025
scalar tree_4_3_u08_r7_network.node[22].core_layer 	data[22] 	10106
scalar tree_4_3_u08_r7_network.node[22].content_store 	p_hit[22] 	0.15966735966736
scalar tree_4_3_u08_r7_network.node[22].content_store 	hits[22] 	1920
scalar tree_4_3_u08_r7_network.node[22].content_store 	misses[22] 	10105
scalar tree_4_3_u08_r7_network.node[22].content_store 	decision_yes[22] 	10106
scalar tree_4_3_u08_r7_network.node[22].content_store 	decision_no[22] 	0
scalar tree_4_3_u08_r7_network.node[22].content_store 	decision_ratio[22] 	1
scalar tree_4_3_u08_r7_network.node[23].core_layer 	interests[23] 	12015
scalar tree_4_3_u08_r7_network.node[23].core_layer 	data[23] 	10050
scalar tree_4_3_u08_r7_network.node[23].content_store 	p_hit[23] 	0.16346233874324
scalar tree_4_3_u08_r7_network.node[23].content_store 	hits[23] 	1964
scalar tree_4_3_u08_r7_network.node[23].content_store 	misses[23] 	10051
scalar tree_4_3_u08_r7_network.node[23].content_store 	decision_yes[23] 	10050
scalar tree_4_3_u08_r7_network.node[23].content_store 	decision_no[23] 	0
scalar tree_4_3_u08_r7_network.node[23].content_store 	decision_ratio[23] 	1
scalar tree_4_3_u08_r7_network.node[24].core_layer 	interests[24] 	11926
scalar tree_4_3_u08_r7_network.node[24].core_layer 	data[24] 	9987
scalar tree_4_3_u08_r7_network.node[24].content_store 	p_hit[24] 	0.16250209626027
scalar tree_4_3_u08_r7_network.node[24].content_store 	hits[24] 	1938
scalar tree_4_3_u08_r7_network.node[24].content_store 	misses[24] 	9988
scalar tree_4_3_u08_r7_network.node[24].content_store 	decision_yes[24] 	9987
scalar tree_4_3_u08_r7_network.node[24].content_store 	decision_no[24] 	0
scalar tree_4_3_u08_r7_network.node[24].content_store 	decision_ratio[24] 	1
scalar tree_4_3_u08_r7_network.node[25].core_layer 	interests[25] 	12090
scalar tree_4_3_u08_r7_network.node[25].core_layer 	data[25] 	10120
scalar tree_4_3_u08_r7_network.node[25].content_store 	p_hit[25] 	0.16277915632754
scalar tree_4_3_u08_r7_network.node[25].content_store 	hits[25] 	1968
scalar tree_4_3_u08_r7_network.node[25].content_store 	misses[25] 	10122
scalar tree_4_3_u08_r7_network.node[25].content_store 	decision_yes[25] 	10120
scalar tree_4_3_u08_r7_network.node[25].content_store 	decision_no[25] 	0
scalar tree_4_3_u08_r7_network.node[25].content_store 	decision_ratio[25] 	1
scalar tree_4_3_u08_r7_network.node[26].core_layer 	interests[26] 	11884
scalar tree_4_3_u08_r7_network.node[26].core_layer 	data[26] 	10008
scalar tree_4_3_u08_r7_network.node[26].content_store 	p_hit[26] 	0.15785930663076
scalar tree_4_3_u08_r7_network.node[26].content_store 	hits[26] 	1876
scalar tree_4_3_u08_r7_network.node[26].content_store 	misses[26] 	10008
scalar tree_4_3_u08_r7_network.node[26].content_store 	decision_yes[26] 	10008
scalar tree_4_3_u08_r7_network.node[26].content_store 	decision_no[26] 	0
scalar tree_4_3_u08_r7_network.node[26].content_store 	decision_ratio[26] 	1
scalar tree_4_3_u08_r7_network.node[27].core_layer 	interests[27] 	11867
scalar tree_4_3_u08_r7_network.node[27].core_layer 	data[27] 	9967
scalar tree_4_3_u08_r7_network.node[27].content_store 	p_hit[27] 	0.16002359484284
scalar tree_4_3_u08_r7_network.node[27].content_store 	hits[27] 	1899
scalar tree_4_3_u08_r7_network.node[27].content_store 	misses[27] 	9968
scalar tree_4_3_u08_r7_network.node[27].content_store 	decision_yes[27] 	9967
scalar tree_4_3_u08_r7_network.node[27].content_store 	decision_no[27] 	0
scalar tree_4_3_u08_r7_network.node[27].content_store 	decision_ratio[27] 	1
scalar tree_4_3_u08_r7_network.node[28].core_layer 	interests[28] 	11915
scalar tree_4_3_u08_r7_network.node[28].core_layer 	data[28] 	10054
scalar tree_4_3_u08_r7_network.node[28].content_store 	p_hit[28] 	0.15618967687789
scalar tree_4_3_u08_r7_network.node[28].content_store 	hits[28] 	1861
scalar tree_4_3_u08_r7_network.node[28].content_store 	misses[28] 	10054
scalar tree_4_3_u08_r7_network.node[28].content_store 	decision_yes[28] 	10054
scalar tree_4_3_u08_r7_network.node[28].content_store 	decision_no[28] 	0
scalar tree_4_3_u08_r7_network.node[28].content_store 	decision_ratio[28] 	1
scalar tree_4_3_u08_r7_network.node[29].core_layer 	interests[29] 	12013
scalar tree_4_3_u08_r7_network.node[29].core_layer 	data[29] 	10139
scalar tree_4_3_u08_r7_network.node[29].content_store 	p_hit[29] 	0.15599766919171
scalar tree_4_3_u08_r7_network.node[29].content_store 	hits[29] 	1874
scalar tree_4_3_u08_r7_network.node[29].content_store 	misses[29] 	10139
scalar tree_4_3_u08_r7_network.node[29].content_store 	decision_yes[29] 	10139
scalar tree_4_3_u08_r7_network.node[29].content_store 	decision_no[29] 	0
scalar tree_4_3_u08_r7_network.node[29].content_store 	decision_ratio[29] 	1
scalar tree_4_3_u08_r7_network.node[30].core_layer 	interests[30] 	11852
scalar tree_4_3_u08_r7_network.node[30].core_layer 	data[30] 	10034
scalar tree_4_3_u08_r7_network.node[30].content_store 	p_hit[30] 	0.15339183260209
scalar tree_4_3_u08_r7_network.node[30].content_store 	hits[30] 	1818
scalar tree_4_3_u08_r7_network.node[30].content_store 	misses[30] 	10034
scalar tree_4_3_u08_r7_network.node[30].content_store 	decision_yes[30] 	10034
scalar tree_4_3_u08_r7_network.node[30].content_store 	decision_no[30] 	0
scalar tree_4_3_u08_r7_network.node[30].content_store 	decision_ratio[30] 	1
scalar tree_4_3_u08_r7_network.node[31].core_layer 	interests[31] 	12010
scalar tree_4_3_u08_r7_network.node[31].core_layer 	data[31] 	10171
scalar tree_4_3_u08_r7_network.node[31].content_store 	p_hit[31] 	0.15303913405495
scalar tree_4_3_u08_r7_network.node[31].content_store 	hits[31] 	1838
scalar tree_4_3_u08_r7_network.node[31].content_store 	misses[31] 	10172
scalar tree_4_3_u08_r7_network.node[31].content_store 	decision_yes[31] 	10171
scalar tree_4_3_u08_r7_network.node[31].content_store 	decision_no[31] 	0
scalar tree_4_3_u08_r7_network.node[31].content_store 	decision_ratio[31] 	1
scalar tree_4_3_u08_r7_network.node[32].core_layer 	interests[32] 	11955
scalar tree_4_3_u08_r7_network.node[32].core_layer 	data[32] 	10060
scalar tree_4_3_u08_r7_network.node[32].content_store 	p_hit[32] 	0.15851108322877
scalar tree_4_3_u08_r7_network.node[32].content_store 	hits[32] 	1895
scalar tree_4_3_u08_r7_network.node[32].content_store 	misses[32] 	10060
scalar tree_4_3_u08_r7_network.node[32].content_store 	decision_yes[32] 	10060
scalar tree_4_3_u08_r7_network.node[32].content_store 	decision_no[32] 	0
scalar tree_4_3_u08_r7_network.node[32].content_store 	decision_ratio[32] 	1
scalar tree_4_3_u08_r7_network.node[33].core_layer 	interests[33] 	12141
scalar tree_4_3_u08_r7_network.node[33].core_layer 	data[33] 	10186
scalar tree_4_3_u08_r7_network.node[33].content_store 	p_hit[33] 	0.16102462729594
scalar tree_4_3_u08_r7_network.node[33].content_store 	hits[33] 	1955
scalar tree_4_3_u08_r7_network.node[33].content_store 	misses[33] 	10186
scalar tree_4_3_u08_r7_network.node[33].content_store 	decision_yes[33] 	10186
scalar tree_4_3_u08_r7_network.node[33].content_store 	decision_no[33] 	0
scalar tree_4_3_u08_r7_network.node[33].content_store 	decision_ratio[33] 	1
scalar tree_4_3_u08_r7_network.node[34].core_layer 	interests[34] 	12174
scalar tree_4_3_u08_r7_network.node[34].core_layer 	data[34] 	10295
scalar tree_4_3_u08_r7_network.node[34].content_store 	p_hit[34] 	0.15434532610481
scalar tree_4_3_u08_r7_network.node[34].content_store 	hits[34] 	1879
scalar tree_4_3_u08_r7_network.node[34].content_store 	misses[34] 	10295
scalar tree_4_3_u08_r7_network.node[34].content_store 	decision_yes[34] 	10295
scalar tree_4_3_u08_r7_network.node[34].content_store 	decision_no[34] 	0
scalar tree_4_3_u08_r7_network.node[34].content_store 	decision_ratio[34] 	1
scalar tree_4_3_u08_r7_network.node[35].core_layer 	interests[35] 	11842
scalar tree_4_3_u08_r7_network.node[35].core_layer 	data[35] 	9951
scalar tree_4_3_u08_r7_network.node[35].content_store 	p_hit[35] 	0.15968586387435
scalar tree_4_3_u08_r7_network.node[35].content_store 	hits[35] 	1891
scalar tree_4_3_u08_r7_network.node[35].content_store 	misses[35] 	9951
scalar tree_4_3_u08_r7_network.node[35].content_store 	decision_yes[35] 	9951
scalar tree_4_3_u08_r7_network.node[35].content_store 	decision_no[35] 	0
scalar tree_4_3_u08_r7_network.node[35].content_store 	decision_ratio[35] 	1
scalar tree_4_3_u08_r7_network.node[36].core_layer 	interests[36] 	12093
scalar tree_4_3_u08_r7_network.node[36].core_layer 	data[36] 	10195
scalar tree_4_3_u08_r7_network.node[36].content_store 	p_hit[36] 	0.15678491689407
scalar tree_4_3_u08_r7_network.node[36].content_store 	hits[36] 	1896
scalar tree_4_3_u08_r7_network.node[36].content_store 	misses[36] 	10197
scalar tree_4_3_u08_r7_network.node[36].content_store 	decision_yes[36] 	10195
scalar tree_4_3_u08_r7_network.node[36].content_store 	decision_no[36] 	0
scalar tree_4_3_u08_r7_network.node[36].content_store 	decision_ratio[36] 	1
scalar tree_4_3_u08_r7_network.node[37].core_layer 	interests[37] 	11891
scalar tree_4_3_u08_r7_network.node[37].core_layer 	data[37] 	10079
scalar tree_4_3_u08_r7_network.node[37].content_store 	p_hit[37] 	0.15246825330082
scalar tree_4_3_u08_r7_network.node[37].content_store 	hits[37] 	1813
scalar tree_4_3_u08_r7_network.node[37].content_store 	misses[37] 	10078
scalar tree_4_3_u08_r7_network.node[37].content_store 	decision_yes[37] 	10079
scalar tree_4_3_u08_r7_network.node[37].content_store 	decision_no[37] 	0
scalar tree_4_3_u08_r7_network.node[37].content_store 	decision_ratio[37] 	1
scalar tree_4_3_u08_r7_network.node[38].core_layer 	interests[38] 	11936
scalar tree_4_3_u08_r7_network.node[38].core_layer 	data[38] 	10072
scalar tree_4_3_u08_r7_network.node[38].content_store 	p_hit[38] 	0.15599865951743
scalar tree_4_3_u08_r7_network.node[38].content_store 	hits[38] 	1862
scalar tree_4_3_u08_r7_network.node[38].content_store 	misses[38] 	10074
scalar tree_4_3_u08_r7_network.node[38].content_store 	decision_yes[38] 	10072
scalar tree_4_3_u08_r7_network.node[38].content_store 	decision_no[38] 	0
scalar tree_4_3_u08_r7_network.node[38].content_store 	decision_ratio[38] 	1
scalar tree_4_3_u08_r7_network.node[39].core_layer 	interests[39] 	12067
scalar tree_4_3_u08_r7_network.node[39].core_layer 	data[39] 	10239
scalar tree_4_3_u08_r7_network.node[39].content_store 	p_hit[39] 	0.15148752796884
scalar tree_4_3_u08_r7_network.node[39].content_store 	hits[39] 	1828
scalar tree_4_3_u08_r7_network.node[39].content_store 	misses[39] 	10239
scalar tree_4_3_u08_r7_network.node[39].content_store 	decision_yes[39] 	10239
scalar tree_4_3_u08_r7_network.node[39].content_store 	decision_no[39] 	0
scalar tree_4_3_u08_r7_network.node[39].content_store 	decision_ratio[39] 	1
scalar tree_4_3_u08_r7_network.client[13] 	hdistance[13] 	3.2409800302064
scalar tree_4_3_u08_r7_network.client[13] 	downloads[13] 	11918
scalar tree_4_3_u08_r7_network.client[13] 	avg_time[13] 	0.004907646375
scalar tree_4_3_u08_r7_network.client[14] 	hdistance[14] 	3.259692513369
scalar tree_4_3_u08_r7_network.client[14] 	downloads[14] 	11968
scalar tree_4_3_u08_r7_network.client[14] 	avg_time[14] 	0.004929139661
scalar tree_4_3_u08_r7_network.client[15] 	hdistance[15] 	3.2648135818908
scalar tree_4_3_u08_r7_network.client[15] 	downloads[15] 	12016
scalar tree_4_3_u08_r7_network.client[15] 	avg_time[15] 	0.004939908091
scalar tree_4_3_u08_r7_network.client[16] 	hdistance[16] 	3.2517090849189
scalar tree_4_3_u08_r7_network.client[16] 	downloads[16] 	12141
scalar tree_4_3_u08_r7_network.client[16] 	avg_time[16] 	0.004919347219
scalar tree_4_3_u08_r7_network.client[17] 	hdistance[17] 	3.2363095729743
scalar tree_4_3_u08_r7_network.client[17] 	downloads[17] 	12107
scalar tree_4_3_u08_r7_network.client[17] 	avg_time[17] 	0.004899468923
scalar tree_4_3_u08_r7_network.client[18] 	hdistance[18] 	3.2340162922735
scalar tree_4_3_u08_r7_network.client[18] 	downloads[18] 	12153
scalar tree_4_3_u08_r7_network.client[18] 	avg_time[18] 	0.004896647252
scalar tree_4_3_u08_r7_network.client[19] 	hdistance[19] 	3.2572125152377
scalar tree_4_3_u08_r7_network.client[19] 	downloads[19] 	12305
scalar tree_4_3_u08_r7_network.client[19] 	avg_time[19] 	0.004928234198
scalar tree_4_3_u08_r7_network.client[20] 	hdistance[20] 	3.2888907605491
scalar tree_4_3_u08_r7_network.client[20] 	downloads[20] 	11873
scalar tree_4_3_u08_r7_network.client[20] 	avg_time[20] 	0.004981022865
scalar tree_4_3_u08_r7_network.client[21] 	hdistance[21] 	3.3034177320966
scalar tree_4_3_u08_r7_network.client[21] 	downloads[21] 	11967
scalar tree_4_3_u08_r7_network.client[21] 	avg_time[21] 	0.004997203538
scalar tree_4_3_u08_r7_network.client[22] 	hdistance[22] 	3.2280891401962
scalar tree_4_3_u08_r7_network.client[22] 	downloads[22] 	12026
scalar tree_4_3_u08_r7_network.client[22] 	avg_time[22] 	0.00488481788
scalar tree_4_3_u08_r7_network.client[23] 	hdistance[23] 	3.21957715998
scalar tree_4_3_u08_r7_network.client[23] 	downloads[23] 	12014
scalar tree_4_3_u08_r7_network.client[23] 	avg_time[23] 	0.004873447948
scalar tree_4_3_u08_r7_network.client[24] 	hdistance[24] 	3.2205450733753
scalar tree_4_3_u08_r7_network.client[24] 	downloads[24] 	11925
scalar tree_4_3_u08_r7_network.client[24] 	avg_time[24] 	0.004873734997
scalar tree_4_3_u08_r7_network.client[25] 	hdistance[25] 	3.2159993381866
scalar tree_4_3_u08_r7_network.client[25] 	downloads[25] 	12088
scalar tree_4_3_u08_r7_network.client[25] 	avg_time[25] 	0.004868913801
scalar tree_4_3_u08_r7_network.client[26] 	hdistance[26] 	3.2494951194884
scalar tree_4_3_u08_r7_network.client[26] 	downloads[26] 	11884
scalar tree_4_3_u08_r7_network.client[26] 	avg_time[26] 	0.004925338523
scalar tree_4_3_u08_r7_network.client[27] 	hdistance[27] 	3.2431316366088
scalar tree_4_3_u08_r7_network.client[27] 	downloads[27] 	11866
scalar tree_4_3_u08_r7_network.client[27] 	avg_time[27] 	0.004915442168
scalar tree_4_3_u08_r7_network.client[28] 	hdistance[28] 	3.2522031053294
scalar tree_4_3_u08_r7_network.client[28] 	downloads[28] 	11915
scalar tree_4_3_u08_r7_network.client[28] 	avg_time[28] 	0.004919541538
scalar tree_4_3_u08_r7_network.client[29] 	hdistance[29] 	3.2572213435445
scalar tree_4_3_u08_r7_network.client[29] 	downloads[29] 	12013
scalar tree_4_3_u08_r7_network.client[29] 	avg_time[29] 	0.004940416756
scalar tree_4_3_u08_r7_network.client[30] 	hdistance[30] 	3.3076274046574
scalar tree_4_3_u08_r7_network.client[30] 	downloads[30] 	11852
scalar tree_4_3_u08_r7_network.client[30] 	avg_time[30] 	0.005016703067
scalar tree_4_3_u08_r7_network.client[31] 	hdistance[31] 	3.2518111416438
scalar tree_4_3_u08_r7_network.client[31] 	downloads[31] 	12009
scalar tree_4_3_u08_r7_network.client[31] 	avg_time[31] 	0.004925837418
scalar tree_4_3_u08_r7_network.client[32] 	hdistance[32] 	3.2393140945211
scalar tree_4_3_u08_r7_network.client[32] 	downloads[32] 	11955
scalar tree_4_3_u08_r7_network.client[32] 	avg_time[32] 	0.004899992601
scalar tree_4_3_u08_r7_network.client[33] 	hdistance[33] 	3.2064080388765
scalar tree_4_3_u08_r7_network.client[33] 	downloads[33] 	12141
scalar tree_4_3_u08_r7_network.client[33] 	avg_time[33] 	0.004860501459
scalar tree_4_3_u08_r7_network.client[34] 	hdistance[34] 	3.246016099885
scalar tree_4_3_u08_r7_network.client[34] 	downloads[34] 	12174
scalar tree_4_3_u08_r7_network.client[34] 	avg_time[34] 	0.004914317063
scalar tree_4_3_u08_r7_network.client[35] 	hdistance[35] 	3.2461577436244
scalar tree_4_3_u08_r7_network.client[35] 	downloads[35] 	11842
scalar tree_4_3_u08_r7_network.client[35] 	avg_time[35] 	0.004926529702
scalar tree_4_3_u08_r7_network.client[36] 	hdistance[36] 	3.2502687949715
scalar tree_4_3_u08_r7_network.client[36] 	downloads[36] 	12091
scalar tree_4_3_u08_r7_network.client[36] 	avg_time[36] 	0.004933545733
scalar tree_4_3_u08_r7_network.client[37] 	hdistance[37] 	3.2683316515304
scalar tree_4_3_u08_r7_network.client[37] 	downloads[37] 	11892
scalar tree_4_3_u08_r7_network.client[37] 	avg_time[37] 	0.004944497534
scalar tree_4_3_u08_r7_network.client[38] 	hdistance[38] 	3.3003184179655
scalar tree_4_3_u08_r7_network.client[38] 	downloads[38] 	11934
scalar tree_4_3_u08_r7_network.client[38] 	avg_time[38] 	0.004992494928
scalar tree_4_3_u08_r7_network.client[39] 	hdistance[39] 	3.3188862186127
scalar tree_4_3_u08_r7_network.client[39] 	downloads[39] 	12067
scalar tree_4_3_u08_r7_network.client[39] 	avg_time[39] 	0.005026101228
