version 2
run General-161-20160820-16:35:05-2644
attr a 0.9
attr cd lce
attr configname General
attr cr lru
attr datetime 20160820-16:35:05
attr experiment General
attr fsize 1
attr inifile hw5115/scenario_A/SPR-LCE.ini
attr iterationvars "$name=tree_4_3, $un=08, $rep=2, $cd=lce, $cr=lru, $fsize=1, $a=0.9, $sl=spr, $ttl=1000, $variance=0.05"
attr iterationvars2 "$name=tree_4_3, $un=08, $rep=2, $cd=lce, $cr=lru, $fsize=1, $a=0.9, $sl=spr, $ttl=1000, $variance=0.05, $repetition=0"
attr measurement "$name=tree_4_3, $un=08, $rep=2, $cd=lce, $cr=lru, $fsize=1, $a=0.9, $sl=spr, $ttl=1000, $variance=0.05"
attr name tree_4_3
attr network networks.${name}_u${un}_r${rep}_network
attr processid 2644
attr rep 2
attr repetition 0
attr replication #0
attr resultdir results
attr runnumber 161
attr seedset 2
attr sl spr
attr ttl 1000
attr un 08
attr variance 0.05

scalar . 	a 	0.9
scalar . 	fsize 	1
scalar . 	rep 	2
scalar . 	ttl 	1000
scalar . 	un 	08
scalar . 	variance 	0.05
scalar tree_4_3_u08_r2_network.content_distribution 	repo-0 	0
scalar tree_4_3_u08_r2_network.content_distribution 	client-0 	13
scalar tree_4_3_u08_r2_network.content_distribution 	client-1 	14
scalar tree_4_3_u08_r2_network.content_distribution 	client-2 	15
scalar tree_4_3_u08_r2_network.content_distribution 	client-3 	16
scalar tree_4_3_u08_r2_network.content_distribution 	client-4 	17
scalar tree_4_3_u08_r2_network.content_distribution 	client-5 	18
scalar tree_4_3_u08_r2_network.content_distribution 	client-6 	19
scalar tree_4_3_u08_r2_network.content_distribution 	client-7 	20
scalar tree_4_3_u08_r2_network.content_distribution 	client-8 	21
scalar tree_4_3_u08_r2_network.content_distribution 	client-9 	22
scalar tree_4_3_u08_r2_network.content_distribution 	client-10 	23
scalar tree_4_3_u08_r2_network.content_distribution 	client-11 	24
scalar tree_4_3_u08_r2_network.content_distribution 	client-12 	25
scalar tree_4_3_u08_r2_network.content_distribution 	client-13 	26
scalar tree_4_3_u08_r2_network.content_distribution 	client-14 	27
scalar tree_4_3_u08_r2_network.content_distribution 	client-15 	28
scalar tree_4_3_u08_r2_network.content_distribution 	client-16 	29
scalar tree_4_3_u08_r2_network.content_distribution 	client-17 	30
scalar tree_4_3_u08_r2_network.content_distribution 	client-18 	31
scalar tree_4_3_u08_r2_network.content_distribution 	client-19 	32
scalar tree_4_3_u08_r2_network.content_distribution 	client-20 	33
scalar tree_4_3_u08_r2_network.content_distribution 	client-21 	34
scalar tree_4_3_u08_r2_network.content_distribution 	client-22 	35
scalar tree_4_3_u08_r2_network.content_distribution 	client-23 	36
scalar tree_4_3_u08_r2_network.content_distribution 	client-24 	37
scalar tree_4_3_u08_r2_network.content_distribution 	client-25 	38
scalar tree_4_3_u08_r2_network.content_distribution 	client-26 	39
scalar tree_4_3_u08_r2_network.content_distribution 	repo-0_card 	100000
scalar tree_4_3_u08_r2_network.content_distribution 	repo-0_price 	0
scalar tree_4_3_u08_r2_network.statistics 	stabilization_time 	496.4
scalar tree_4_3_u08_r2_network.statistics 	p_hit 	0.11223694215107
scalar tree_4_3_u08_r2_network.statistics 	interests 	27961.45
scalar tree_4_3_u08_r2_network.statistics 	data 	19884.075
scalar tree_4_3_u08_r2_network.statistics 	hdistance 	3.2512888595714
scalar tree_4_3_u08_r2_network.statistics 	avg_time 	0.004923692826
scalar tree_4_3_u08_r2_network.statistics 	downloads 	323082
scalar tree_4_3_u08_r2_network.statistics 	total_cost 	0
scalar tree_4_3_u08_r2_network.statistics 	total_replicas 	100000
scalar tree_4_3_u08_r2_network.statistics 	inner_hit 	0.21090001919017
scalar tree_4_3_u08_r2_network.node[0].core_layer 	interests[0] 	258338
scalar tree_4_3_u08_r2_network.node[0].core_layer 	repo_load[0] 	254944
scalar tree_4_3_u08_r2_network.node[0].core_layer 	data[0] 	0
scalar tree_4_3_u08_r2_network.node[0].core_layer 	repo_int[0] 	254944
scalar tree_4_3_u08_r2_network.node[0].content_store 	p_hit[0] 	0.013137827187638
scalar tree_4_3_u08_r2_network.node[0].content_store 	hits[0] 	3394
scalar tree_4_3_u08_r2_network.node[0].content_store 	misses[0] 	254944
scalar tree_4_3_u08_r2_network.node[0].content_store 	decision_yes[0] 	254944
scalar tree_4_3_u08_r2_network.node[0].content_store 	decision_no[0] 	0
scalar tree_4_3_u08_r2_network.node[0].content_store 	decision_ratio[0] 	1
scalar tree_4_3_u08_r2_network.node[1].core_layer 	interests[1] 	185731
scalar tree_4_3_u08_r2_network.node[1].core_layer 	data[1] 	180959
scalar tree_4_3_u08_r2_network.node[1].content_store 	p_hit[1] 	0.025520780052872
scalar tree_4_3_u08_r2_network.node[1].content_store 	hits[1] 	4740
scalar tree_4_3_u08_r2_network.node[1].content_store 	misses[1] 	180991
scalar tree_4_3_u08_r2_network.node[1].content_store 	decision_yes[1] 	180959
scalar tree_4_3_u08_r2_network.node[1].content_store 	decision_no[1] 	0
scalar tree_4_3_u08_r2_network.node[1].content_store 	decision_ratio[1] 	1
scalar tree_4_3_u08_r2_network.node[2].core_layer 	interests[2] 	68687
scalar tree_4_3_u08_r2_network.node[2].core_layer 	data[2] 	67170
scalar tree_4_3_u08_r2_network.node[2].content_store 	p_hit[2] 	0.021998340297291
scalar tree_4_3_u08_r2_network.node[2].content_store 	hits[2] 	1511
scalar tree_4_3_u08_r2_network.node[2].content_store 	misses[2] 	67176
scalar tree_4_3_u08_r2_network.node[2].content_store 	decision_yes[2] 	67170
scalar tree_4_3_u08_r2_network.node[2].content_store 	decision_no[2] 	0
scalar tree_4_3_u08_r2_network.node[2].content_store 	decision_ratio[2] 	1
scalar tree_4_3_u08_r2_network.node[3].core_layer 	interests[3] 	10211
scalar tree_4_3_u08_r2_network.node[3].core_layer 	data[3] 	10209
scalar tree_4_3_u08_r2_network.node[3].content_store 	p_hit[3] 	0.00019586720203702
scalar tree_4_3_u08_r2_network.node[3].content_store 	hits[3] 	2
scalar tree_4_3_u08_r2_network.node[3].content_store 	misses[3] 	10209
scalar tree_4_3_u08_r2_network.node[3].content_store 	decision_yes[3] 	10209
scalar tree_4_3_u08_r2_network.node[3].content_store 	decision_no[3] 	0
scalar tree_4_3_u08_r2_network.node[3].content_store 	decision_ratio[3] 	1
scalar tree_4_3_u08_r2_network.node[4].core_layer 	interests[4] 	50714
scalar tree_4_3_u08_r2_network.node[4].core_layer 	data[4] 	48986
scalar tree_4_3_u08_r2_network.node[4].content_store 	p_hit[4] 	0.034014276136767
scalar tree_4_3_u08_r2_network.node[4].content_store 	hits[4] 	1725
scalar tree_4_3_u08_r2_network.node[4].content_store 	misses[4] 	48989
scalar tree_4_3_u08_r2_network.node[4].content_store 	decision_yes[4] 	48986
scalar tree_4_3_u08_r2_network.node[4].content_store 	decision_no[4] 	0
scalar tree_4_3_u08_r2_network.node[4].content_store 	decision_ratio[4] 	1
scalar tree_4_3_u08_r2_network.node[5].core_layer 	interests[5] 	30334
scalar tree_4_3_u08_r2_network.node[5].core_layer 	data[5] 	29503
scalar tree_4_3_u08_r2_network.node[5].content_store 	p_hit[5] 	0.027362035999209
scalar tree_4_3_u08_r2_network.node[5].content_store 	hits[5] 	830
scalar tree_4_3_u08_r2_network.node[5].content_store 	misses[5] 	29504
scalar tree_4_3_u08_r2_network.node[5].content_store 	decision_yes[5] 	29503
scalar tree_4_3_u08_r2_network.node[5].content_store 	decision_no[5] 	0
scalar tree_4_3_u08_r2_network.node[5].content_store 	decision_ratio[5] 	1
scalar tree_4_3_u08_r2_network.node[6].core_layer 	interests[6] 	10145
scalar tree_4_3_u08_r2_network.node[6].core_layer 	data[6] 	10119
scalar tree_4_3_u08_r2_network.node[6].content_store 	p_hit[6] 	0.0025628388368655
scalar tree_4_3_u08_r2_network.node[6].content_store 	hits[6] 	26
scalar tree_4_3_u08_r2_network.node[6].content_store 	misses[6] 	10119
scalar tree_4_3_u08_r2_network.node[6].content_store 	decision_yes[6] 	10119
scalar tree_4_3_u08_r2_network.node[6].content_store 	decision_no[6] 	0
scalar tree_4_3_u08_r2_network.node[6].content_store 	decision_ratio[6] 	1
scalar tree_4_3_u08_r2_network.node[7].core_layer 	interests[7] 	50346
scalar tree_4_3_u08_r2_network.node[7].core_layer 	data[7] 	48629
scalar tree_4_3_u08_r2_network.node[7].content_store 	p_hit[7] 	0.033885512255194
scalar tree_4_3_u08_r2_network.node[7].content_store 	hits[7] 	1706
scalar tree_4_3_u08_r2_network.node[7].content_store 	misses[7] 	48640
scalar tree_4_3_u08_r2_network.node[7].content_store 	decision_yes[7] 	48629
scalar tree_4_3_u08_r2_network.node[7].content_store 	decision_no[7] 	0
scalar tree_4_3_u08_r2_network.node[7].content_store 	decision_ratio[7] 	1
scalar tree_4_3_u08_r2_network.node[8].core_layer 	interests[8] 	30036
scalar tree_4_3_u08_r2_network.node[8].core_layer 	data[8] 	29210
scalar tree_4_3_u08_r2_network.node[8].content_store 	p_hit[8] 	0.027433746171261
scalar tree_4_3_u08_r2_network.node[8].content_store 	hits[8] 	824
scalar tree_4_3_u08_r2_network.node[8].content_store 	misses[8] 	29212
scalar tree_4_3_u08_r2_network.node[8].content_store 	decision_yes[8] 	29210
scalar tree_4_3_u08_r2_network.node[8].content_store 	decision_no[8] 	0
scalar tree_4_3_u08_r2_network.node[8].content_store 	decision_ratio[8] 	1
scalar tree_4_3_u08_r2_network.node[9].core_layer 	interests[9] 	10038
scalar tree_4_3_u08_r2_network.node[9].core_layer 	data[9] 	10017
scalar tree_4_3_u08_r2_network.node[9].content_store 	p_hit[9] 	0.002092050209205
scalar tree_4_3_u08_r2_network.node[9].content_store 	hits[9] 	21
scalar tree_4_3_u08_r2_network.node[9].content_store 	misses[9] 	10017
scalar tree_4_3_u08_r2_network.node[9].content_store 	decision_yes[9] 	10017
scalar tree_4_3_u08_r2_network.node[9].content_store 	decision_no[9] 	0
scalar tree_4_3_u08_r2_network.node[9].content_store 	decision_ratio[9] 	1
scalar tree_4_3_u08_r2_network.node[10].core_layer 	interests[10] 	50180
scalar tree_4_3_u08_r2_network.node[10].core_layer 	data[10] 	48493
scalar tree_4_3_u08_r2_network.node[10].content_store 	p_hit[10] 	0.033539258668792
scalar tree_4_3_u08_r2_network.node[10].content_store 	hits[10] 	1683
scalar tree_4_3_u08_r2_network.node[10].content_store 	misses[10] 	48497
scalar tree_4_3_u08_r2_network.node[10].content_store 	decision_yes[10] 	48493
scalar tree_4_3_u08_r2_network.node[10].content_store 	decision_no[10] 	0
scalar tree_4_3_u08_r2_network.node[10].content_store 	decision_ratio[10] 	1
scalar tree_4_3_u08_r2_network.node[11].core_layer 	interests[11] 	30370
scalar tree_4_3_u08_r2_network.node[11].core_layer 	data[11] 	29460
scalar tree_4_3_u08_r2_network.node[11].content_store 	p_hit[11] 	0.029897925584458
scalar tree_4_3_u08_r2_network.node[11].content_store 	hits[11] 	908
scalar tree_4_3_u08_r2_network.node[11].content_store 	misses[11] 	29462
scalar tree_4_3_u08_r2_network.node[11].content_store 	decision_yes[11] 	29460
scalar tree_4_3_u08_r2_network.node[11].content_store 	decision_no[11] 	0
scalar tree_4_3_u08_r2_network.node[11].content_store 	decision_ratio[11] 	1
scalar tree_4_3_u08_r2_network.node[12].core_layer 	interests[12] 	10234
scalar tree_4_3_u08_r2_network.node[12].core_layer 	data[12] 	10211
scalar tree_4_3_u08_r2_network.node[12].content_store 	p_hit[12] 	0.0022474105921438
scalar tree_4_3_u08_r2_network.node[12].content_store 	hits[12] 	23
scalar tree_4_3_u08_r2_network.node[12].content_store 	misses[12] 	10211
scalar tree_4_3_u08_r2_network.node[12].content_store 	decision_yes[12] 	10211
scalar tree_4_3_u08_r2_network.node[12].content_store 	decision_no[12] 	0
scalar tree_4_3_u08_r2_network.node[12].content_store 	decision_ratio[12] 	1
scalar tree_4_3_u08_r2_network.node[13].core_layer 	interests[13] 	12053
scalar tree_4_3_u08_r2_network.node[13].core_layer 	data[13] 	10155
scalar tree_4_3_u08_r2_network.node[13].content_store 	p_hit[13] 	0.15747116900357
scalar tree_4_3_u08_r2_network.node[13].content_store 	hits[13] 	1898
scalar tree_4_3_u08_r2_network.node[13].content_store 	misses[13] 	10155
scalar tree_4_3_u08_r2_network.node[13].content_store 	decision_yes[13] 	10155
scalar tree_4_3_u08_r2_network.node[13].content_store 	decision_no[13] 	0
scalar tree_4_3_u08_r2_network.node[13].content_store 	decision_ratio[13] 	1
scalar tree_4_3_u08_r2_network.node[14].core_layer 	interests[14] 	11899
scalar tree_4_3_u08_r2_network.node[14].core_layer 	data[14] 	10012
scalar tree_4_3_u08_r2_network.node[14].content_store 	p_hit[14] 	0.15858475502143
scalar tree_4_3_u08_r2_network.node[14].content_store 	hits[14] 	1887
scalar tree_4_3_u08_r2_network.node[14].content_store 	misses[14] 	10012
scalar tree_4_3_u08_r2_network.node[14].content_store 	decision_yes[14] 	10012
scalar tree_4_3_u08_r2_network.node[14].content_store 	decision_no[14] 	0
scalar tree_4_3_u08_r2_network.node[14].content_store 	decision_ratio[14] 	1
scalar tree_4_3_u08_r2_network.node[15].core_layer 	interests[15] 	11932
scalar tree_4_3_u08_r2_network.node[15].core_layer 	data[15] 	10083
scalar tree_4_3_u08_r2_network.node[15].content_store 	p_hit[15] 	0.1549614482065
scalar tree_4_3_u08_r2_network.node[15].content_store 	hits[15] 	1849
scalar tree_4_3_u08_r2_network.node[15].content_store 	misses[15] 	10083
scalar tree_4_3_u08_r2_network.node[15].content_store 	decision_yes[15] 	10083
scalar tree_4_3_u08_r2_network.node[15].content_store 	decision_no[15] 	0
scalar tree_4_3_u08_r2_network.node[15].content_store 	decision_ratio[15] 	1
scalar tree_4_3_u08_r2_network.node[16].core_layer 	interests[16] 	12242
scalar tree_4_3_u08_r2_network.node[16].core_layer 	data[16] 	10302
scalar tree_4_3_u08_r2_network.node[16].content_store 	p_hit[16] 	0.15847083809835
scalar tree_4_3_u08_r2_network.node[16].content_store 	hits[16] 	1940
scalar tree_4_3_u08_r2_network.node[16].content_store 	misses[16] 	10302
scalar tree_4_3_u08_r2_network.node[16].content_store 	decision_yes[16] 	10302
scalar tree_4_3_u08_r2_network.node[16].content_store 	decision_no[16] 	0
scalar tree_4_3_u08_r2_network.node[16].content_store 	decision_ratio[16] 	1
scalar tree_4_3_u08_r2_network.node[17].core_layer 	interests[17] 	12053
scalar tree_4_3_u08_r2_network.node[17].core_layer 	data[17] 	10174
scalar tree_4_3_u08_r2_network.node[17].content_store 	p_hit[17] 	0.1558118310794
scalar tree_4_3_u08_r2_network.node[17].content_store 	hits[17] 	1878
scalar tree_4_3_u08_r2_network.node[17].content_store 	misses[17] 	10175
scalar tree_4_3_u08_r2_network.node[17].content_store 	decision_yes[17] 	10174
scalar tree_4_3_u08_r2_network.node[17].content_store 	decision_no[17] 	0
scalar tree_4_3_u08_r2_network.node[17].content_store 	decision_ratio[17] 	1
scalar tree_4_3_u08_r2_network.node[18].core_layer 	interests[18] 	11939
scalar tree_4_3_u08_r2_network.node[18].core_layer 	data[18] 	10020
scalar tree_4_3_u08_r2_network.node[18].content_store 	p_hit[18] 	0.16073372979312
scalar tree_4_3_u08_r2_network.node[18].content_store 	hits[18] 	1919
scalar tree_4_3_u08_r2_network.node[18].content_store 	misses[18] 	10020
scalar tree_4_3_u08_r2_network.node[18].content_store 	decision_yes[18] 	10020
scalar tree_4_3_u08_r2_network.node[18].content_store 	decision_no[18] 	0
scalar tree_4_3_u08_r2_network.node[18].content_store 	decision_ratio[18] 	1
scalar tree_4_3_u08_r2_network.node[19].core_layer 	interests[19] 	12006
scalar tree_4_3_u08_r2_network.node[19].core_layer 	data[19] 	10162
scalar tree_4_3_u08_r2_network.node[19].content_store 	p_hit[19] 	0.15350658004331
scalar tree_4_3_u08_r2_network.node[19].content_store 	hits[19] 	1843
scalar tree_4_3_u08_r2_network.node[19].content_store 	misses[19] 	10163
scalar tree_4_3_u08_r2_network.node[19].content_store 	decision_yes[19] 	10162
scalar tree_4_3_u08_r2_network.node[19].content_store 	decision_no[19] 	0
scalar tree_4_3_u08_r2_network.node[19].content_store 	decision_ratio[19] 	1
scalar tree_4_3_u08_r2_network.node[20].core_layer 	interests[20] 	11987
scalar tree_4_3_u08_r2_network.node[20].core_layer 	data[20] 	10140
scalar tree_4_3_u08_r2_network.node[20].content_store 	p_hit[20] 	0.15408359055644
scalar tree_4_3_u08_r2_network.node[20].content_store 	hits[20] 	1847
scalar tree_4_3_u08_r2_network.node[20].content_store 	misses[20] 	10140
scalar tree_4_3_u08_r2_network.node[20].content_store 	decision_yes[20] 	10140
scalar tree_4_3_u08_r2_network.node[20].content_store 	decision_no[20] 	0
scalar tree_4_3_u08_r2_network.node[20].content_store 	decision_ratio[20] 	1
scalar tree_4_3_u08_r2_network.node[21].core_layer 	interests[21] 	12021
scalar tree_4_3_u08_r2_network.node[21].core_layer 	data[21] 	10145
scalar tree_4_3_u08_r2_network.node[21].content_store 	p_hit[21] 	0.15606022793445
scalar tree_4_3_u08_r2_network.node[21].content_store 	hits[21] 	1876
scalar tree_4_3_u08_r2_network.node[21].content_store 	misses[21] 	10145
scalar tree_4_3_u08_r2_network.node[21].content_store 	decision_yes[21] 	10145
scalar tree_4_3_u08_r2_network.node[21].content_store 	decision_no[21] 	0
scalar tree_4_3_u08_r2_network.node[21].content_store 	decision_ratio[21] 	1
scalar tree_4_3_u08_r2_network.node[22].core_layer 	interests[22] 	11948
scalar tree_4_3_u08_r2_network.node[22].core_layer 	data[22] 	10162
scalar tree_4_3_u08_r2_network.node[22].content_store 	p_hit[22] 	0.14931369266823
scalar tree_4_3_u08_r2_network.node[22].content_store 	hits[22] 	1784
scalar tree_4_3_u08_r2_network.node[22].content_store 	misses[22] 	10164
scalar tree_4_3_u08_r2_network.node[22].content_store 	decision_yes[22] 	10162
scalar tree_4_3_u08_r2_network.node[22].content_store 	decision_no[22] 	0
scalar tree_4_3_u08_r2_network.node[22].content_store 	decision_ratio[22] 	1
scalar tree_4_3_u08_r2_network.node[23].core_layer 	interests[23] 	11848
scalar tree_4_3_u08_r2_network.node[23].core_layer 	data[23] 	9999
scalar tree_4_3_u08_r2_network.node[23].content_store 	p_hit[23] 	0.15597569209993
scalar tree_4_3_u08_r2_network.node[23].content_store 	hits[23] 	1848
scalar tree_4_3_u08_r2_network.node[23].content_store 	misses[23] 	10000
scalar tree_4_3_u08_r2_network.node[23].content_store 	decision_yes[23] 	9999
scalar tree_4_3_u08_r2_network.node[23].content_store 	decision_no[23] 	0
scalar tree_4_3_u08_r2_network.node[23].content_store 	decision_ratio[23] 	1
scalar tree_4_3_u08_r2_network.node[24].core_layer 	interests[24] 	11964
scalar tree_4_3_u08_r2_network.node[24].core_layer 	data[24] 	10050
scalar tree_4_3_u08_r2_network.node[24].content_store 	p_hit[24] 	0.15972918756269
scalar tree_4_3_u08_r2_network.node[24].content_store 	hits[24] 	1911
scalar tree_4_3_u08_r2_network.node[24].content_store 	misses[24] 	10053
scalar tree_4_3_u08_r2_network.node[24].content_store 	decision_yes[24] 	10050
scalar tree_4_3_u08_r2_network.node[24].content_store 	decision_no[24] 	0
scalar tree_4_3_u08_r2_network.node[24].content_store 	decision_ratio[24] 	1
scalar tree_4_3_u08_r2_network.node[25].core_layer 	interests[25] 	11978
scalar tree_4_3_u08_r2_network.node[25].core_layer 	data[25] 	10095
scalar tree_4_3_u08_r2_network.node[25].content_store 	p_hit[25] 	0.15712138921356
scalar tree_4_3_u08_r2_network.node[25].content_store 	hits[25] 	1882
scalar tree_4_3_u08_r2_network.node[25].content_store 	misses[25] 	10096
scalar tree_4_3_u08_r2_network.node[25].content_store 	decision_yes[25] 	10095
scalar tree_4_3_u08_r2_network.node[25].content_store 	decision_no[25] 	0
scalar tree_4_3_u08_r2_network.node[25].content_store 	decision_ratio[25] 	1
scalar tree_4_3_u08_r2_network.node[26].core_layer 	interests[26] 	11933
scalar tree_4_3_u08_r2_network.node[26].core_layer 	data[26] 	9972
scalar tree_4_3_u08_r2_network.node[26].content_store 	p_hit[26] 	0.16433419927931
scalar tree_4_3_u08_r2_network.node[26].content_store 	hits[26] 	1961
scalar tree_4_3_u08_r2_network.node[26].content_store 	misses[26] 	9972
scalar tree_4_3_u08_r2_network.node[26].content_store 	decision_yes[26] 	9972
scalar tree_4_3_u08_r2_network.node[26].content_store 	decision_no[26] 	0
scalar tree_4_3_u08_r2_network.node[26].content_store 	decision_ratio[26] 	1
scalar tree_4_3_u08_r2_network.node[27].core_layer 	interests[27] 	12012
scalar tree_4_3_u08_r2_network.node[27].core_layer 	data[27] 	10088
scalar tree_4_3_u08_r2_network.node[27].content_store 	p_hit[27] 	0.16017316017316
scalar tree_4_3_u08_r2_network.node[27].content_store 	hits[27] 	1924
scalar tree_4_3_u08_r2_network.node[27].content_store 	misses[27] 	10088
scalar tree_4_3_u08_r2_network.node[27].content_store 	decision_yes[27] 	10088
scalar tree_4_3_u08_r2_network.node[27].content_store 	decision_no[27] 	0
scalar tree_4_3_u08_r2_network.node[27].content_store 	decision_ratio[27] 	1
scalar tree_4_3_u08_r2_network.node[28].core_layer 	interests[28] 	11983
scalar tree_4_3_u08_r2_network.node[28].core_layer 	data[28] 	10038
scalar tree_4_3_u08_r2_network.node[28].content_store 	p_hit[28] 	0.16222982558625
scalar tree_4_3_u08_r2_network.node[28].content_store 	hits[28] 	1944
scalar tree_4_3_u08_r2_network.node[28].content_store 	misses[28] 	10039
scalar tree_4_3_u08_r2_network.node[28].content_store 	decision_yes[28] 	10038
scalar tree_4_3_u08_r2_network.node[28].content_store 	decision_no[28] 	0
scalar tree_4_3_u08_r2_network.node[28].content_store 	decision_ratio[28] 	1
scalar tree_4_3_u08_r2_network.node[29].core_layer 	interests[29] 	11898
scalar tree_4_3_u08_r2_network.node[29].core_layer 	data[29] 	9976
scalar tree_4_3_u08_r2_network.node[29].content_store 	p_hit[29] 	0.1615397545806
scalar tree_4_3_u08_r2_network.node[29].content_store 	hits[29] 	1922
scalar tree_4_3_u08_r2_network.node[29].content_store 	misses[29] 	9976
scalar tree_4_3_u08_r2_network.node[29].content_store 	decision_yes[29] 	9976
scalar tree_4_3_u08_r2_network.node[29].content_store 	decision_no[29] 	0
scalar tree_4_3_u08_r2_network.node[29].content_store 	decision_ratio[29] 	1
scalar tree_4_3_u08_r2_network.node[30].core_layer 	interests[30] 	11900
scalar tree_4_3_u08_r2_network.node[30].core_layer 	data[30] 	10038
scalar tree_4_3_u08_r2_network.node[30].content_store 	p_hit[30] 	0.15647058823529
scalar tree_4_3_u08_r2_network.node[30].content_store 	hits[30] 	1862
scalar tree_4_3_u08_r2_network.node[30].content_store 	misses[30] 	10038
scalar tree_4_3_u08_r2_network.node[30].content_store 	decision_yes[30] 	10038
scalar tree_4_3_u08_r2_network.node[30].content_store 	decision_no[30] 	0
scalar tree_4_3_u08_r2_network.node[30].content_store 	decision_ratio[30] 	1
scalar tree_4_3_u08_r2_network.node[31].core_layer 	interests[31] 	11907
scalar tree_4_3_u08_r2_network.node[31].core_layer 	data[31] 	10046
scalar tree_4_3_u08_r2_network.node[31].content_store 	p_hit[31] 	0.15637860082305
scalar tree_4_3_u08_r2_network.node[31].content_store 	hits[31] 	1862
scalar tree_4_3_u08_r2_network.node[31].content_store 	misses[31] 	10045
scalar tree_4_3_u08_r2_network.node[31].content_store 	decision_yes[31] 	10046
scalar tree_4_3_u08_r2_network.node[31].content_store 	decision_no[31] 	0
scalar tree_4_3_u08_r2_network.node[31].content_store 	decision_ratio[31] 	1
scalar tree_4_3_u08_r2_network.node[32].core_layer 	interests[32] 	11902
scalar tree_4_3_u08_r2_network.node[32].core_layer 	data[32] 	10065
scalar tree_4_3_u08_r2_network.node[32].content_store 	p_hit[32] 	0.1543438077634
scalar tree_4_3_u08_r2_network.node[32].content_store 	hits[32] 	1837
scalar tree_4_3_u08_r2_network.node[32].content_store 	misses[32] 	10065
scalar tree_4_3_u08_r2_network.node[32].content_store 	decision_yes[32] 	10065
scalar tree_4_3_u08_r2_network.node[32].content_store 	decision_no[32] 	0
scalar tree_4_3_u08_r2_network.node[32].content_store 	decision_ratio[32] 	1
scalar tree_4_3_u08_r2_network.node[33].core_layer 	interests[33] 	11970
scalar tree_4_3_u08_r2_network.node[33].core_layer 	data[33] 	10116
scalar tree_4_3_u08_r2_network.node[33].content_store 	p_hit[33] 	0.15488721804511
scalar tree_4_3_u08_r2_network.node[33].content_store 	hits[33] 	1854
scalar tree_4_3_u08_r2_network.node[33].content_store 	misses[33] 	10116
scalar tree_4_3_u08_r2_network.node[33].content_store 	decision_yes[33] 	10116
scalar tree_4_3_u08_r2_network.node[33].content_store 	decision_no[33] 	0
scalar tree_4_3_u08_r2_network.node[33].content_store 	decision_ratio[33] 	1
scalar tree_4_3_u08_r2_network.node[34].core_layer 	interests[34] 	11871
scalar tree_4_3_u08_r2_network.node[34].core_layer 	data[34] 	10008
scalar tree_4_3_u08_r2_network.node[34].content_store 	p_hit[34] 	0.15685283463904
scalar tree_4_3_u08_r2_network.node[34].content_store 	hits[34] 	1862
scalar tree_4_3_u08_r2_network.node[34].content_store 	misses[34] 	10009
scalar tree_4_3_u08_r2_network.node[34].content_store 	decision_yes[34] 	10008
scalar tree_4_3_u08_r2_network.node[34].content_store 	decision_no[34] 	0
scalar tree_4_3_u08_r2_network.node[34].content_store 	decision_ratio[34] 	1
scalar tree_4_3_u08_r2_network.node[35].core_layer 	interests[35] 	11938
scalar tree_4_3_u08_r2_network.node[35].core_layer 	data[35] 	10027
scalar tree_4_3_u08_r2_network.node[35].content_store 	p_hit[35] 	0.16007706483498
scalar tree_4_3_u08_r2_network.node[35].content_store 	hits[35] 	1911
scalar tree_4_3_u08_r2_network.node[35].content_store 	misses[35] 	10027
scalar tree_4_3_u08_r2_network.node[35].content_store 	decision_yes[35] 	10027
scalar tree_4_3_u08_r2_network.node[35].content_store 	decision_no[35] 	0
scalar tree_4_3_u08_r2_network.node[35].content_store 	decision_ratio[35] 	1
scalar tree_4_3_u08_r2_network.node[36].core_layer 	interests[36] 	11972
scalar tree_4_3_u08_r2_network.node[36].core_layer 	data[36] 	10086
scalar tree_4_3_u08_r2_network.node[36].content_store 	p_hit[36] 	0.1574507183428
scalar tree_4_3_u08_r2_network.node[36].content_store 	hits[36] 	1885
scalar tree_4_3_u08_r2_network.node[36].content_store 	misses[36] 	10087
scalar tree_4_3_u08_r2_network.node[36].content_store 	decision_yes[36] 	10086
scalar tree_4_3_u08_r2_network.node[36].content_store 	decision_no[36] 	0
scalar tree_4_3_u08_r2_network.node[36].content_store 	decision_ratio[36] 	1
scalar tree_4_3_u08_r2_network.node[37].core_layer 	interests[37] 	11749
scalar tree_4_3_u08_r2_network.node[37].core_layer 	data[37] 	9946
scalar tree_4_3_u08_r2_network.node[37].content_store 	p_hit[37] 	0.15337475529832
scalar tree_4_3_u08_r2_network.node[37].content_store 	hits[37] 	1802
scalar tree_4_3_u08_r2_network.node[37].content_store 	misses[37] 	9947
scalar tree_4_3_u08_r2_network.node[37].content_store 	decision_yes[37] 	9946
scalar tree_4_3_u08_r2_network.node[37].content_store 	decision_no[37] 	0
scalar tree_4_3_u08_r2_network.node[37].content_store 	decision_ratio[37] 	1
scalar tree_4_3_u08_r2_network.node[38].core_layer 	interests[38] 	12146
scalar tree_4_3_u08_r2_network.node[38].core_layer 	data[38] 	10258
scalar tree_4_3_u08_r2_network.node[38].content_store 	p_hit[38] 	0.15552445249465
scalar tree_4_3_u08_r2_network.node[38].content_store 	hits[38] 	1889
scalar tree_4_3_u08_r2_network.node[38].content_store 	misses[38] 	10257
scalar tree_4_3_u08_r2_network.node[38].content_store 	decision_yes[38] 	10258
scalar tree_4_3_u08_r2_network.node[38].content_store 	decision_no[38] 	0
scalar tree_4_3_u08_r2_network.node[38].content_store 	decision_ratio[38] 	1
scalar tree_4_3_u08_r2_network.node[39].core_layer 	interests[39] 	12043
scalar tree_4_3_u08_r2_network.node[39].core_layer 	data[39] 	10234
scalar tree_4_3_u08_r2_network.node[39].content_store 	p_hit[39] 	0.15012870547206
scalar tree_4_3_u08_r2_network.node[39].content_store 	hits[39] 	1808
scalar tree_4_3_u08_r2_network.node[39].content_store 	misses[39] 	10235
scalar tree_4_3_u08_r2_network.node[39].content_store 	decision_yes[39] 	10234
scalar tree_4_3_u08_r2_network.node[39].content_store 	decision_no[39] 	0
scalar tree_4_3_u08_r2_network.node[39].content_store 	decision_ratio[39] 	1
scalar tree_4_3_u08_r2_network.client[13] 	hdistance[13] 	3.2386957603916
scalar tree_4_3_u08_r2_network.client[13] 	downloads[13] 	12053
scalar tree_4_3_u08_r2_network.client[13] 	avg_time[13] 	0.004901223933
scalar tree_4_3_u08_r2_network.client[14] 	hdistance[14] 	3.2290108412472
scalar tree_4_3_u08_r2_network.client[14] 	downloads[14] 	11899
scalar tree_4_3_u08_r2_network.client[14] 	avg_time[14] 	0.004887819807
scalar tree_4_3_u08_r2_network.client[15] 	hdistance[15] 	3.2489943010392
scalar tree_4_3_u08_r2_network.client[15] 	downloads[15] 	11932
scalar tree_4_3_u08_r2_network.client[15] 	avg_time[15] 	0.004916828592
scalar tree_4_3_u08_r2_network.client[16] 	hdistance[16] 	3.2404835811142
scalar tree_4_3_u08_r2_network.client[16] 	downloads[16] 	12242
scalar tree_4_3_u08_r2_network.client[16] 	avg_time[16] 	0.004903386736
scalar tree_4_3_u08_r2_network.client[17] 	hdistance[17] 	3.2514935280451
scalar tree_4_3_u08_r2_network.client[17] 	downloads[17] 	12052
scalar tree_4_3_u08_r2_network.client[17] 	avg_time[17] 	0.004921533786
scalar tree_4_3_u08_r2_network.client[18] 	hdistance[18] 	3.2364519641511
scalar tree_4_3_u08_r2_network.client[18] 	downloads[18] 	11939
scalar tree_4_3_u08_r2_network.client[18] 	avg_time[18] 	0.004899558309
scalar tree_4_3_u08_r2_network.client[19] 	hdistance[19] 	3.2531445231154
scalar tree_4_3_u08_r2_network.client[19] 	downloads[19] 	12005
scalar tree_4_3_u08_r2_network.client[19] 	avg_time[19] 	0.00492412693
scalar tree_4_3_u08_r2_network.client[20] 	hdistance[20] 	3.2662050554768
scalar tree_4_3_u08_r2_network.client[20] 	downloads[20] 	11987
scalar tree_4_3_u08_r2_network.client[20] 	avg_time[20] 	0.004942455377
scalar tree_4_3_u08_r2_network.client[21] 	hdistance[21] 	3.2981449130688
scalar tree_4_3_u08_r2_network.client[21] 	downloads[21] 	12021
scalar tree_4_3_u08_r2_network.client[21] 	avg_time[21] 	0.004991247195
scalar tree_4_3_u08_r2_network.client[22] 	hdistance[22] 	3.2750711535242
scalar tree_4_3_u08_r2_network.client[22] 	downloads[22] 	11946
scalar tree_4_3_u08_r2_network.client[22] 	avg_time[22] 	0.004954858933
scalar tree_4_3_u08_r2_network.client[23] 	hdistance[23] 	3.2435215666414
scalar tree_4_3_u08_r2_network.client[23] 	downloads[23] 	11847
scalar tree_4_3_u08_r2_network.client[23] 	avg_time[23] 	0.004911403295
scalar tree_4_3_u08_r2_network.client[24] 	hdistance[24] 	3.2269041050079
scalar tree_4_3_u08_r2_network.client[24] 	downloads[24] 	11961
scalar tree_4_3_u08_r2_network.client[24] 	avg_time[24] 	0.004884208179
scalar tree_4_3_u08_r2_network.client[25] 	hdistance[25] 	3.2369541621441
scalar tree_4_3_u08_r2_network.client[25] 	downloads[25] 	11977
scalar tree_4_3_u08_r2_network.client[25] 	avg_time[25] 	0.004900347233
scalar tree_4_3_u08_r2_network.client[26] 	hdistance[26] 	3.2239168691863
scalar tree_4_3_u08_r2_network.client[26] 	downloads[26] 	11933
scalar tree_4_3_u08_r2_network.client[26] 	avg_time[26] 	0.004887624822
scalar tree_4_3_u08_r2_network.client[27] 	hdistance[27] 	3.2435897435897
scalar tree_4_3_u08_r2_network.client[27] 	downloads[27] 	12012
scalar tree_4_3_u08_r2_network.client[27] 	avg_time[27] 	0.004920169845
scalar tree_4_3_u08_r2_network.client[28] 	hdistance[28] 	3.2172425304624
scalar tree_4_3_u08_r2_network.client[28] 	downloads[28] 	11982
scalar tree_4_3_u08_r2_network.client[28] 	avg_time[28] 	0.004871364964
scalar tree_4_3_u08_r2_network.client[29] 	hdistance[29] 	3.2312993780467
scalar tree_4_3_u08_r2_network.client[29] 	downloads[29] 	11898
scalar tree_4_3_u08_r2_network.client[29] 	avg_time[29] 	0.004901206595
scalar tree_4_3_u08_r2_network.client[30] 	hdistance[30] 	3.2968067226891
scalar tree_4_3_u08_r2_network.client[30] 	downloads[30] 	11900
scalar tree_4_3_u08_r2_network.client[30] 	avg_time[30] 	0.004999016475
scalar tree_4_3_u08_r2_network.client[31] 	hdistance[31] 	3.2442055760833
scalar tree_4_3_u08_r2_network.client[31] 	downloads[31] 	11908
scalar tree_4_3_u08_r2_network.client[31] 	avg_time[31] 	0.004912738812
scalar tree_4_3_u08_r2_network.client[32] 	hdistance[32] 	3.2523105360444
scalar tree_4_3_u08_r2_network.client[32] 	downloads[32] 	11902
scalar tree_4_3_u08_r2_network.client[32] 	avg_time[32] 	0.004921448157
scalar tree_4_3_u08_r2_network.client[33] 	hdistance[33] 	3.2477025898079
scalar tree_4_3_u08_r2_network.client[33] 	downloads[33] 	11970
scalar tree_4_3_u08_r2_network.client[33] 	avg_time[33] 	0.004915770131
scalar tree_4_3_u08_r2_network.client[34] 	hdistance[34] 	3.2362257792755
scalar tree_4_3_u08_r2_network.client[34] 	downloads[34] 	11870
scalar tree_4_3_u08_r2_network.client[34] 	avg_time[34] 	0.004899721873
scalar tree_4_3_u08_r2_network.client[35] 	hdistance[35] 	3.2291841179427
scalar tree_4_3_u08_r2_network.client[35] 	downloads[35] 	11938
scalar tree_4_3_u08_r2_network.client[35] 	avg_time[35] 	0.004898001827
scalar tree_4_3_u08_r2_network.client[36] 	hdistance[36] 	3.2487678556512
scalar tree_4_3_u08_r2_network.client[36] 	downloads[36] 	11971
scalar tree_4_3_u08_r2_network.client[36] 	avg_time[36] 	0.004927245858
scalar tree_4_3_u08_r2_network.client[37] 	hdistance[37] 	3.2503404834865
scalar tree_4_3_u08_r2_network.client[37] 	downloads[37] 	11748
scalar tree_4_3_u08_r2_network.client[37] 	avg_time[37] 	0.004921112954
scalar tree_4_3_u08_r2_network.client[38] 	hdistance[38] 	3.2519963777064
scalar tree_4_3_u08_r2_network.client[38] 	downloads[38] 	12147
scalar tree_4_3_u08_r2_network.client[38] 	avg_time[38] 	0.004934054777
scalar tree_4_3_u08_r2_network.client[39] 	hdistance[39] 	3.3661351934895
scalar tree_4_3_u08_r2_network.client[39] 	downloads[39] 	12042
scalar tree_4_3_u08_r2_network.client[39] 	avg_time[39] 	0.005091230933
