version 2
run General-71-20160825-22:15:13-3010
attr D ffc0.05
attr F nrr
attr R lru
attr a 0.9
attr configname General
attr datetime 20160825-22:15:13
attr experiment General
attr inifile hw5115/scenario_C/omnetp.ini
attr iterationvars "$net=level3, $rep=8, $a=0.9, $F=nrr, $D=ffc0.05, $R=lru, $window=60, $variance=0.05, $mytime=600"
attr iterationvars2 "$net=level3, $rep=8, $a=0.9, $F=nrr, $D=ffc0.05, $R=lru, $window=60, $variance=0.05, $mytime=600, $repetition=0"
attr measurement "$net=level3, $rep=8, $a=0.9, $F=nrr, $D=ffc0.05, $R=lru, $window=60, $variance=0.05, $mytime=600"
attr mytime 600
attr net level3
attr network networks.${net=level3}_network
attr processid 3010
attr rep 8
attr repetition 0
attr replication #0
attr resultdir results
attr runnumber 71
attr seedset 8
attr variance 0.05
attr window 60

scalar . 	a 	0.9
scalar . 	mytime 	600
scalar . 	rep 	8
scalar . 	variance 	0.05
scalar . 	window 	60
scalar level3_network.content_distribution 	repo-0 	4
scalar level3_network.content_distribution 	repo-1 	26
scalar level3_network.content_distribution 	repo-2 	15
scalar level3_network.content_distribution 	repo-3 	23
scalar level3_network.content_distribution 	repo-4 	44
scalar level3_network.content_distribution 	repo-5 	8
scalar level3_network.content_distribution 	repo-6 	28
scalar level3_network.content_distribution 	repo-7 	25
scalar level3_network.content_distribution 	repo-8 	31
scalar level3_network.content_distribution 	repo-9 	5
scalar level3_network.content_distribution 	repo-10 	1
scalar level3_network.content_distribution 	repo-11 	39
scalar level3_network.content_distribution 	repo-12 	3
scalar level3_network.content_distribution 	repo-13 	24
scalar level3_network.content_distribution 	repo-14 	20
scalar level3_network.content_distribution 	repo-15 	45
scalar level3_network.content_distribution 	client-0 	21
scalar level3_network.content_distribution 	client-1 	9
scalar level3_network.content_distribution 	client-2 	38
scalar level3_network.content_distribution 	client-3 	2
scalar level3_network.content_distribution 	client-4 	30
scalar level3_network.content_distribution 	client-5 	8
scalar level3_network.content_distribution 	client-6 	23
scalar level3_network.content_distribution 	client-7 	32
scalar level3_network.content_distribution 	client-8 	40
scalar level3_network.content_distribution 	client-9 	42
scalar level3_network.content_distribution 	client-10 	45
scalar level3_network.content_distribution 	client-11 	33
scalar level3_network.content_distribution 	client-12 	28
scalar level3_network.content_distribution 	client-13 	3
scalar level3_network.content_distribution 	client-14 	15
scalar level3_network.content_distribution 	client-15 	34
scalar level3_network.content_distribution 	client-16 	31
scalar level3_network.content_distribution 	client-17 	17
scalar level3_network.content_distribution 	client-18 	25
scalar level3_network.content_distribution 	client-19 	12
scalar level3_network.content_distribution 	client-20 	22
scalar level3_network.content_distribution 	client-21 	11
scalar level3_network.content_distribution 	client-22 	6
scalar level3_network.content_distribution 	client-23 	39
scalar level3_network.content_distribution 	client-24 	7
scalar level3_network.content_distribution 	client-25 	18
scalar level3_network.content_distribution 	client-26 	36
scalar level3_network.content_distribution 	client-27 	27
scalar level3_network.content_distribution 	client-28 	43
scalar level3_network.content_distribution 	client-29 	37
scalar level3_network.content_distribution 	client-30 	4
scalar level3_network.content_distribution 	client-31 	14
scalar level3_network.content_distribution 	repo-0_card 	6204
scalar level3_network.content_distribution 	repo-0_price 	0
scalar level3_network.content_distribution 	repo-1_card 	6317
scalar level3_network.content_distribution 	repo-1_price 	0
scalar level3_network.content_distribution 	repo-2_card 	6111
scalar level3_network.content_distribution 	repo-2_price 	0
scalar level3_network.content_distribution 	repo-3_card 	6351
scalar level3_network.content_distribution 	repo-3_price 	0
scalar level3_network.content_distribution 	repo-4_card 	6338
scalar level3_network.content_distribution 	repo-4_price 	0
scalar level3_network.content_distribution 	repo-5_card 	6223
scalar level3_network.content_distribution 	repo-5_price 	0
scalar level3_network.content_distribution 	repo-6_card 	6196
scalar level3_network.content_distribution 	repo-6_price 	0
scalar level3_network.content_distribution 	repo-7_card 	6310
scalar level3_network.content_distribution 	repo-7_price 	0
scalar level3_network.content_distribution 	repo-8_card 	6323
scalar level3_network.content_distribution 	repo-8_price 	0
scalar level3_network.content_distribution 	repo-9_card 	6231
scalar level3_network.content_distribution 	repo-9_price 	0
scalar level3_network.content_distribution 	repo-10_card 	6186
scalar level3_network.content_distribution 	repo-10_price 	0
scalar level3_network.content_distribution 	repo-11_card 	6137
scalar level3_network.content_distribution 	repo-11_price 	0
scalar level3_network.content_distribution 	repo-12_card 	6315
scalar level3_network.content_distribution 	repo-12_price 	0
scalar level3_network.content_distribution 	repo-13_card 	6325
scalar level3_network.content_distribution 	repo-13_price 	0
scalar level3_network.content_distribution 	repo-14_card 	6116
scalar level3_network.content_distribution 	repo-14_price 	0
scalar level3_network.content_distribution 	repo-15_card 	6317
scalar level3_network.content_distribution 	repo-15_price 	0
scalar level3_network.statistics 	stabilization_time 	21326.4
scalar level3_network.statistics 	p_hit 	0.27128525068248
scalar level3_network.statistics 	interests 	19265.152173913
scalar level3_network.statistics 	data 	10916.543478261
scalar level3_network.statistics 	hdistance 	1.8006377953863
scalar level3_network.statistics 	avg_time 	0.03307028797
scalar level3_network.statistics 	downloads 	384016
scalar level3_network.statistics 	total_cost 	0
scalar level3_network.statistics 	total_replicas 	100000
scalar level3_network.statistics 	inner_hit 	0.50750229157118
scalar level3_network.node[0].core_layer 	interests[0] 	953
scalar level3_network.node[0].core_layer 	data[0] 	376
scalar level3_network.node[0].core_layer 	repo_int[0] 	189127
scalar level3_network.node[0].content_store 	p_hit[0] 	0.60545645330535
scalar level3_network.node[0].content_store 	hits[0] 	577
scalar level3_network.node[0].content_store 	misses[0] 	376
scalar level3_network.node[0].content_store 	decision_yes[0] 	3
scalar level3_network.node[0].content_store 	decision_no[0] 	373
scalar level3_network.node[0].content_store 	decision_ratio[0] 	0.0079787234042553
scalar level3_network.node[1].core_layer 	interests[1] 	11927
scalar level3_network.node[1].core_layer 	repo_load[1] 	10227
scalar level3_network.node[1].core_layer 	data[1] 	0
scalar level3_network.node[1].content_store 	p_hit[1] 	0.14253374696068
scalar level3_network.node[1].content_store 	hits[1] 	1700
scalar level3_network.node[1].content_store 	misses[1] 	10227
scalar level3_network.node[1].content_store 	decision_yes[1] 	17
scalar level3_network.node[1].content_store 	decision_no[1] 	10210
scalar level3_network.node[1].content_store 	decision_ratio[1] 	0.0016622665493302
scalar level3_network.node[2].core_layer 	interests[2] 	39770
scalar level3_network.node[2].core_layer 	data[2] 	34535
scalar level3_network.node[2].content_store 	p_hit[2] 	0.13150616042243
scalar level3_network.node[2].content_store 	hits[2] 	5230
scalar level3_network.node[2].content_store 	misses[2] 	34540
scalar level3_network.node[2].content_store 	decision_yes[2] 	16
scalar level3_network.node[2].content_store 	decision_no[2] 	34519
scalar level3_network.node[2].content_store 	decision_ratio[2] 	0.00046329810337339
scalar level3_network.node[3].core_layer 	interests[3] 	48348
scalar level3_network.node[3].core_layer 	repo_load[3] 	13706
scalar level3_network.node[3].core_layer 	data[3] 	28505
scalar level3_network.node[3].content_store 	p_hit[3] 	0.12683047902705
scalar level3_network.node[3].content_store 	hits[3] 	6132
scalar level3_network.node[3].content_store 	misses[3] 	42216
scalar level3_network.node[3].content_store 	decision_yes[3] 	21
scalar level3_network.node[3].content_store 	decision_no[3] 	42190
scalar level3_network.node[3].content_store 	decision_ratio[3] 	0.00049750065148895
scalar level3_network.node[4].core_layer 	interests[4] 	25801
scalar level3_network.node[4].core_layer 	repo_load[4] 	12467
scalar level3_network.node[4].core_layer 	data[4] 	8724
scalar level3_network.node[4].content_store 	p_hit[4] 	0.17855897058254
scalar level3_network.node[4].content_store 	hits[4] 	4607
scalar level3_network.node[4].content_store 	misses[4] 	21194
scalar level3_network.node[4].content_store 	decision_yes[4] 	22
scalar level3_network.node[4].content_store 	decision_no[4] 	21169
scalar level3_network.node[4].content_store 	decision_ratio[4] 	0.001038176584399
scalar level3_network.node[5].core_layer 	interests[5] 	15891
scalar level3_network.node[5].core_layer 	repo_load[5] 	11050
scalar level3_network.node[5].core_layer 	data[5] 	1725
scalar level3_network.node[5].content_store 	p_hit[5] 	0.19614876345101
scalar level3_network.node[5].content_store 	hits[5] 	3117
scalar level3_network.node[5].content_store 	misses[5] 	12774
scalar level3_network.node[5].content_store 	decision_yes[5] 	25
scalar level3_network.node[5].content_store 	decision_no[5] 	12750
scalar level3_network.node[5].content_store 	decision_ratio[5] 	0.0019569471624266
scalar level3_network.node[6].core_layer 	interests[6] 	13420
scalar level3_network.node[6].core_layer 	data[6] 	9020
scalar level3_network.node[6].content_store 	p_hit[6] 	0.32786885245902
scalar level3_network.node[6].content_store 	hits[6] 	4400
scalar level3_network.node[6].content_store 	misses[6] 	9020
scalar level3_network.node[6].content_store 	decision_yes[6] 	4
scalar level3_network.node[6].content_store 	decision_no[6] 	9016
scalar level3_network.node[6].content_store 	decision_ratio[6] 	0.00044345898004435
scalar level3_network.node[7].core_layer 	interests[7] 	110003
scalar level3_network.node[7].core_layer 	data[7] 	101430
scalar level3_network.node[7].content_store 	p_hit[7] 	0.077616065016409
scalar level3_network.node[7].content_store 	hits[7] 	8538
scalar level3_network.node[7].content_store 	misses[7] 	101465
scalar level3_network.node[7].content_store 	decision_yes[7] 	51
scalar level3_network.node[7].content_store 	decision_no[7] 	101379
scalar level3_network.node[7].content_store 	decision_ratio[7] 	0.00050280981958001
scalar level3_network.node[8].core_layer 	interests[8] 	44295
scalar level3_network.node[8].core_layer 	repo_load[8] 	13833
scalar level3_network.node[8].core_layer 	data[8] 	20802
scalar level3_network.node[8].content_store 	p_hit[8] 	0.21806072920194
scalar level3_network.node[8].content_store 	hits[8] 	9659
scalar level3_network.node[8].content_store 	misses[8] 	34636
scalar level3_network.node[8].content_store 	decision_yes[8] 	30
scalar level3_network.node[8].content_store 	decision_no[8] 	34605
scalar level3_network.node[8].content_store 	decision_ratio[8] 	0.00086617583369424
scalar level3_network.node[9].core_layer 	interests[9] 	15634
scalar level3_network.node[9].core_layer 	data[9] 	8848
scalar level3_network.node[9].content_store 	p_hit[9] 	0.43386209543303
scalar level3_network.node[9].content_store 	hits[9] 	6783
scalar level3_network.node[9].content_store 	misses[9] 	8851
scalar level3_network.node[9].content_store 	decision_yes[9] 	7
scalar level3_network.node[9].content_store 	decision_no[9] 	8841
scalar level3_network.node[9].content_store 	decision_ratio[9] 	0.00079113924050633
scalar level3_network.node[10].core_layer 	interests[10] 	0
scalar level3_network.node[10].core_layer 	data[10] 	0
scalar level3_network.node[10].content_store 	p_hit[10] 	-nan
scalar level3_network.node[10].content_store 	hits[10] 	0
scalar level3_network.node[10].content_store 	misses[10] 	0
scalar level3_network.node[10].content_store 	decision_yes[10] 	0
scalar level3_network.node[10].content_store 	decision_no[10] 	0
scalar level3_network.node[10].content_store 	decision_ratio[10] 	0
scalar level3_network.node[11].core_layer 	interests[11] 	71663
scalar level3_network.node[11].core_layer 	data[11] 	61434
scalar level3_network.node[11].content_store 	p_hit[11] 	0.14222122992339
scalar level3_network.node[11].content_store 	hits[11] 	10192
scalar level3_network.node[11].content_store 	misses[11] 	61471
scalar level3_network.node[11].content_store 	decision_yes[11] 	26
scalar level3_network.node[11].content_store 	decision_no[11] 	61408
scalar level3_network.node[11].content_store 	decision_ratio[11] 	0.0004232184132565
scalar level3_network.node[12].core_layer 	interests[12] 	13406
scalar level3_network.node[12].core_layer 	data[12] 	8726
scalar level3_network.node[12].content_store 	p_hit[12] 	0.3491720125317
scalar level3_network.node[12].content_store 	hits[12] 	4681
scalar level3_network.node[12].content_store 	misses[12] 	8725
scalar level3_network.node[12].content_store 	decision_yes[12] 	9
scalar level3_network.node[12].content_store 	decision_no[12] 	8717
scalar level3_network.node[12].content_store 	decision_ratio[12] 	0.0010314004125602
scalar level3_network.node[13].core_layer 	interests[13] 	0
scalar level3_network.node[13].core_layer 	data[13] 	0
scalar level3_network.node[13].content_store 	p_hit[13] 	-nan
scalar level3_network.node[13].content_store 	hits[13] 	0
scalar level3_network.node[13].content_store 	misses[13] 	0
scalar level3_network.node[13].content_store 	decision_yes[13] 	0
scalar level3_network.node[13].content_store 	decision_no[13] 	0
scalar level3_network.node[13].content_store 	decision_ratio[13] 	0
scalar level3_network.node[14].core_layer 	interests[14] 	13757
scalar level3_network.node[14].core_layer 	data[14] 	8923
scalar level3_network.node[14].content_store 	p_hit[14] 	0.35138474958203
scalar level3_network.node[14].content_store 	hits[14] 	4834
scalar level3_network.node[14].content_store 	misses[14] 	8923
scalar level3_network.node[14].content_store 	decision_yes[14] 	4
scalar level3_network.node[14].content_store 	decision_no[14] 	8919
scalar level3_network.node[14].content_store 	decision_ratio[14] 	0.00044827972654937
scalar level3_network.node[15].core_layer 	interests[15] 	25426
scalar level3_network.node[15].core_layer 	repo_load[15] 	11768
scalar level3_network.node[15].core_layer 	data[15] 	8897
scalar level3_network.node[15].content_store 	p_hit[15] 	0.18724927239833
scalar level3_network.node[15].content_store 	hits[15] 	4761
scalar level3_network.node[15].content_store 	misses[15] 	20665
scalar level3_network.node[15].content_store 	decision_yes[15] 	24
scalar level3_network.node[15].content_store 	decision_no[15] 	20641
scalar level3_network.node[15].content_store 	decision_ratio[15] 	0.0011613839825792
scalar level3_network.node[16].core_layer 	interests[16] 	0
scalar level3_network.node[16].core_layer 	data[16] 	0
scalar level3_network.node[16].content_store 	p_hit[16] 	-nan
scalar level3_network.node[16].content_store 	hits[16] 	0
scalar level3_network.node[16].content_store 	misses[16] 	0
scalar level3_network.node[16].content_store 	decision_yes[16] 	0
scalar level3_network.node[16].content_store 	decision_no[16] 	0
scalar level3_network.node[16].content_store 	decision_ratio[16] 	0
scalar level3_network.node[17].core_layer 	interests[17] 	19445
scalar level3_network.node[17].core_layer 	data[17] 	8903
scalar level3_network.node[17].content_store 	p_hit[17] 	0.54209308305477
scalar level3_network.node[17].content_store 	hits[17] 	10541
scalar level3_network.node[17].content_store 	misses[17] 	8904
scalar level3_network.node[17].content_store 	decision_yes[17] 	13
scalar level3_network.node[17].content_store 	decision_no[17] 	8890
scalar level3_network.node[17].content_store 	decision_ratio[17] 	0.0014601819611367
scalar level3_network.node[18].core_layer 	interests[18] 	36100
scalar level3_network.node[18].core_layer 	data[18] 	23764
scalar level3_network.node[18].content_store 	p_hit[18] 	0.34138504155125
scalar level3_network.node[18].content_store 	hits[18] 	12324
scalar level3_network.node[18].content_store 	misses[18] 	23776
scalar level3_network.node[18].content_store 	decision_yes[18] 	22
scalar level3_network.node[18].content_store 	decision_no[18] 	23742
scalar level3_network.node[18].content_store 	decision_ratio[18] 	0.00092577007237839
scalar level3_network.node[19].core_layer 	interests[19] 	0
scalar level3_network.node[19].core_layer 	data[19] 	0
scalar level3_network.node[19].content_store 	p_hit[19] 	-nan
scalar level3_network.node[19].content_store 	hits[19] 	0
scalar level3_network.node[19].content_store 	misses[19] 	0
scalar level3_network.node[19].content_store 	decision_yes[19] 	0
scalar level3_network.node[19].content_store 	decision_no[19] 	0
scalar level3_network.node[19].content_store 	decision_ratio[19] 	0
scalar level3_network.node[20].core_layer 	interests[20] 	12771
scalar level3_network.node[20].core_layer 	repo_load[20] 	10809
scalar level3_network.node[20].core_layer 	data[20] 	0
scalar level3_network.node[20].content_store 	p_hit[20] 	0.15362931642001
scalar level3_network.node[20].content_store 	hits[20] 	1962
scalar level3_network.node[20].content_store 	misses[20] 	10809
scalar level3_network.node[20].content_store 	decision_yes[20] 	22
scalar level3_network.node[20].content_store 	decision_no[20] 	10787
scalar level3_network.node[20].content_store 	decision_ratio[20] 	0.002035340919604
scalar level3_network.node[21].core_layer 	interests[21] 	12586
scalar level3_network.node[21].core_layer 	data[21] 	8562
scalar level3_network.node[21].content_store 	p_hit[21] 	0.31956141744796
scalar level3_network.node[21].content_store 	hits[21] 	4022
scalar level3_network.node[21].content_store 	misses[21] 	8564
scalar level3_network.node[21].content_store 	decision_yes[21] 	5
scalar level3_network.node[21].content_store 	decision_no[21] 	8557
scalar level3_network.node[21].content_store 	decision_ratio[21] 	0.00058397570661061
scalar level3_network.node[22].core_layer 	interests[22] 	13801
scalar level3_network.node[22].core_layer 	data[22] 	8919
scalar level3_network.node[22].content_store 	p_hit[22] 	0.35381494094631
scalar level3_network.node[22].content_store 	hits[22] 	4883
scalar level3_network.node[22].content_store 	misses[22] 	8918
scalar level3_network.node[22].content_store 	decision_yes[22] 	10
scalar level3_network.node[22].content_store 	decision_no[22] 	8909
scalar level3_network.node[22].content_store 	decision_ratio[22] 	0.0011212019284673
scalar level3_network.node[23].core_layer 	interests[23] 	25738
scalar level3_network.node[23].core_layer 	repo_load[23] 	12101
scalar level3_network.node[23].core_layer 	data[23] 	8812
scalar level3_network.node[23].content_store 	p_hit[23] 	0.18754370968995
scalar level3_network.node[23].content_store 	hits[23] 	4827
scalar level3_network.node[23].content_store 	misses[23] 	20911
scalar level3_network.node[23].content_store 	decision_yes[23] 	21
scalar level3_network.node[23].content_store 	decision_no[23] 	20892
scalar level3_network.node[23].content_store 	decision_ratio[23] 	0.0010041600918089
scalar level3_network.node[24].core_layer 	interests[24] 	13975
scalar level3_network.node[24].core_layer 	repo_load[24] 	11300
scalar level3_network.node[24].core_layer 	data[24] 	0
scalar level3_network.node[24].content_store 	p_hit[24] 	0.19141323792487
scalar level3_network.node[24].content_store 	hits[24] 	2675
scalar level3_network.node[24].content_store 	misses[24] 	11300
scalar level3_network.node[24].content_store 	decision_yes[24] 	24
scalar level3_network.node[24].content_store 	decision_no[24] 	11276
scalar level3_network.node[24].content_store 	decision_ratio[24] 	0.0021238938053097
scalar level3_network.node[25].core_layer 	interests[25] 	25246
scalar level3_network.node[25].core_layer 	repo_load[25] 	11725
scalar level3_network.node[25].core_layer 	data[25] 	8760
scalar level3_network.node[25].content_store 	p_hit[25] 	0.18858433019092
scalar level3_network.node[25].content_store 	hits[25] 	4761
scalar level3_network.node[25].content_store 	misses[25] 	20485
scalar level3_network.node[25].content_store 	decision_yes[25] 	18
scalar level3_network.node[25].content_store 	decision_no[25] 	20467
scalar level3_network.node[25].content_store 	decision_ratio[25] 	0.00087869172565292
scalar level3_network.node[26].core_layer 	interests[26] 	13778
scalar level3_network.node[26].core_layer 	repo_load[26] 	10935
scalar level3_network.node[26].core_layer 	data[26] 	0
scalar level3_network.node[26].content_store 	p_hit[26] 	0.20634344607345
scalar level3_network.node[26].content_store 	hits[26] 	2843
scalar level3_network.node[26].content_store 	misses[26] 	10935
scalar level3_network.node[26].content_store 	decision_yes[26] 	24
scalar level3_network.node[26].content_store 	decision_no[26] 	10911
scalar level3_network.node[26].content_store 	decision_ratio[26] 	0.0021947873799726
scalar level3_network.node[27].core_layer 	interests[27] 	13303
scalar level3_network.node[27].core_layer 	data[27] 	8842
scalar level3_network.node[27].content_store 	p_hit[27] 	0.33511238066602
scalar level3_network.node[27].content_store 	hits[27] 	4458
scalar level3_network.node[27].content_store 	misses[27] 	8845
scalar level3_network.node[27].content_store 	decision_yes[27] 	5
scalar level3_network.node[27].content_store 	decision_no[27] 	8837
scalar level3_network.node[27].content_store 	decision_ratio[27] 	0.00056548292241574
scalar level3_network.node[28].core_layer 	interests[28] 	25230
scalar level3_network.node[28].core_layer 	repo_load[28] 	11655
scalar level3_network.node[28].core_layer 	data[28] 	8687
scalar level3_network.node[28].content_store 	p_hit[28] 	0.19369797859691
scalar level3_network.node[28].content_store 	hits[28] 	4887
scalar level3_network.node[28].content_store 	misses[28] 	20343
scalar level3_network.node[28].content_store 	decision_yes[28] 	29
scalar level3_network.node[28].content_store 	decision_no[28] 	20313
scalar level3_network.node[28].content_store 	decision_ratio[28] 	0.0014256218660899
scalar level3_network.node[29].core_layer 	interests[29] 	0
scalar level3_network.node[29].core_layer 	data[29] 	0
scalar level3_network.node[29].content_store 	p_hit[29] 	-nan
scalar level3_network.node[29].content_store 	hits[29] 	0
scalar level3_network.node[29].content_store 	misses[29] 	0
scalar level3_network.node[29].content_store 	decision_yes[29] 	0
scalar level3_network.node[29].content_store 	decision_no[29] 	0
scalar level3_network.node[29].content_store 	decision_ratio[29] 	0
scalar level3_network.node[30].core_layer 	interests[30] 	13600
scalar level3_network.node[30].core_layer 	data[30] 	8684
scalar level3_network.node[30].content_store 	p_hit[30] 	0.36147058823529
scalar level3_network.node[30].content_store 	hits[30] 	4916
scalar level3_network.node[30].content_store 	misses[30] 	8684
scalar level3_network.node[30].content_store 	decision_yes[30] 	8
scalar level3_network.node[30].content_store 	decision_no[30] 	8676
scalar level3_network.node[30].content_store 	decision_ratio[30] 	0.00092123445416859
scalar level3_network.node[31].core_layer 	interests[31] 	25691
scalar level3_network.node[31].core_layer 	repo_load[31] 	12361
scalar level3_network.node[31].core_layer 	data[31] 	8752
scalar level3_network.node[31].content_store 	p_hit[31] 	0.1781557743957
scalar level3_network.node[31].content_store 	hits[31] 	4577
scalar level3_network.node[31].content_store 	misses[31] 	21114
scalar level3_network.node[31].content_store 	decision_yes[31] 	28
scalar level3_network.node[31].content_store 	decision_no[31] 	21085
scalar level3_network.node[31].content_store 	decision_ratio[31] 	0.0013261971297305
scalar level3_network.node[32].core_layer 	interests[32] 	13599
scalar level3_network.node[32].core_layer 	data[32] 	8950
scalar level3_network.node[32].content_store 	p_hit[32] 	0.34201044194426
scalar level3_network.node[32].content_store 	hits[32] 	4651
scalar level3_network.node[32].content_store 	misses[32] 	8948
scalar level3_network.node[32].content_store 	decision_yes[32] 	7
scalar level3_network.node[32].content_store 	decision_no[32] 	8943
scalar level3_network.node[32].content_store 	decision_ratio[32] 	0.00078212290502793
scalar level3_network.node[33].core_layer 	interests[33] 	13304
scalar level3_network.node[33].core_layer 	data[33] 	8903
scalar level3_network.node[33].content_store 	p_hit[33] 	0.33080276608539
scalar level3_network.node[33].content_store 	hits[33] 	4401
scalar level3_network.node[33].content_store 	misses[33] 	8903
scalar level3_network.node[33].content_store 	decision_yes[33] 	4
scalar level3_network.node[33].content_store 	decision_no[33] 	8899
scalar level3_network.node[33].content_store 	decision_ratio[33] 	0.00044928675727283
scalar level3_network.node[34].core_layer 	interests[34] 	13546
scalar level3_network.node[34].core_layer 	data[34] 	8865
scalar level3_network.node[34].content_store 	p_hit[34] 	0.34563708843939
scalar level3_network.node[34].content_store 	hits[34] 	4682
scalar level3_network.node[34].content_store 	misses[34] 	8864
scalar level3_network.node[34].content_store 	decision_yes[34] 	8
scalar level3_network.node[34].content_store 	decision_no[34] 	8857
scalar level3_network.node[34].content_store 	decision_ratio[34] 	0.0009024252679075
scalar level3_network.node[35].core_layer 	interests[35] 	0
scalar level3_network.node[35].core_layer 	data[35] 	0
scalar level3_network.node[35].content_store 	p_hit[35] 	-nan
scalar level3_network.node[35].content_store 	hits[35] 	0
scalar level3_network.node[35].content_store 	misses[35] 	0
scalar level3_network.node[35].content_store 	decision_yes[35] 	0
scalar level3_network.node[35].content_store 	decision_no[35] 	0
scalar level3_network.node[35].content_store 	decision_ratio[35] 	0
scalar level3_network.node[36].core_layer 	interests[36] 	13417
scalar level3_network.node[36].core_layer 	data[36] 	8950
scalar level3_network.node[36].content_store 	p_hit[36] 	0.33271223075203
scalar level3_network.node[36].content_store 	hits[36] 	4464
scalar level3_network.node[36].content_store 	misses[36] 	8953
scalar level3_network.node[36].content_store 	decision_yes[36] 	10
scalar level3_network.node[36].content_store 	decision_no[36] 	8940
scalar level3_network.node[36].content_store 	decision_ratio[36] 	0.0011173184357542
scalar level3_network.node[37].core_layer 	interests[37] 	13619
scalar level3_network.node[37].core_layer 	data[37] 	8911
scalar level3_network.node[37].content_store 	p_hit[37] 	0.34576694324106
scalar level3_network.node[37].content_store 	hits[37] 	4709
scalar level3_network.node[37].content_store 	misses[37] 	8910
scalar level3_network.node[37].content_store 	decision_yes[37] 	10
scalar level3_network.node[37].content_store 	decision_no[37] 	8901
scalar level3_network.node[37].content_store 	decision_ratio[37] 	0.0011222085063405
scalar level3_network.node[38].core_layer 	interests[38] 	13534
scalar level3_network.node[38].core_layer 	data[38] 	8751
scalar level3_network.node[38].content_store 	p_hit[38] 	0.35333234816019
scalar level3_network.node[38].content_store 	hits[38] 	4782
scalar level3_network.node[38].content_store 	misses[38] 	8752
scalar level3_network.node[38].content_store 	decision_yes[38] 	2
scalar level3_network.node[38].content_store 	decision_no[38] 	8749
scalar level3_network.node[38].content_store 	decision_ratio[38] 	0.00022854530910753
scalar level3_network.node[39].core_layer 	interests[39] 	25023
scalar level3_network.node[39].core_layer 	repo_load[39] 	11745
scalar level3_network.node[39].core_layer 	data[39] 	8759
scalar level3_network.node[39].content_store 	p_hit[39] 	0.18051392718699
scalar level3_network.node[39].content_store 	hits[39] 	4517
scalar level3_network.node[39].content_store 	misses[39] 	20506
scalar level3_network.node[39].content_store 	decision_yes[39] 	17
scalar level3_network.node[39].content_store 	decision_no[39] 	20487
scalar level3_network.node[39].content_store 	decision_ratio[39] 	0.00082910651580179
scalar level3_network.node[40].core_layer 	interests[40] 	12734
scalar level3_network.node[40].core_layer 	data[40] 	8826
scalar level3_network.node[40].content_store 	p_hit[40] 	0.30697345688707
scalar level3_network.node[40].content_store 	hits[40] 	3909
scalar level3_network.node[40].content_store 	misses[40] 	8825
scalar level3_network.node[40].content_store 	decision_yes[40] 	6
scalar level3_network.node[40].content_store 	decision_no[40] 	8820
scalar level3_network.node[40].content_store 	decision_ratio[40] 	0.00067980965329708
scalar level3_network.node[41].core_layer 	interests[41] 	0
scalar level3_network.node[41].core_layer 	data[41] 	0
scalar level3_network.node[41].content_store 	p_hit[41] 	-nan
scalar level3_network.node[41].content_store 	hits[41] 	0
scalar level3_network.node[41].content_store 	misses[41] 	0
scalar level3_network.node[41].content_store 	decision_yes[41] 	0
scalar level3_network.node[41].content_store 	decision_no[41] 	0
scalar level3_network.node[41].content_store 	decision_ratio[41] 	0
scalar level3_network.node[42].core_layer 	interests[42] 	13493
scalar level3_network.node[42].core_layer 	data[42] 	9001
scalar level3_network.node[42].content_store 	p_hit[42] 	0.33298747498703
scalar level3_network.node[42].content_store 	hits[42] 	4493
scalar level3_network.node[42].content_store 	misses[42] 	9000
scalar level3_network.node[42].content_store 	decision_yes[42] 	3
scalar level3_network.node[42].content_store 	decision_no[42] 	8998
scalar level3_network.node[42].content_store 	decision_ratio[42] 	0.00033329630041107
scalar level3_network.node[43].core_layer 	interests[43] 	12704
scalar level3_network.node[43].core_layer 	data[43] 	8709
scalar level3_network.node[43].content_store 	p_hit[43] 	0.31438916876574
scalar level3_network.node[43].content_store 	hits[43] 	3994
scalar level3_network.node[43].content_store 	misses[43] 	8710
scalar level3_network.node[43].content_store 	decision_yes[43] 	5
scalar level3_network.node[43].content_store 	decision_no[43] 	8704
scalar level3_network.node[43].content_store 	decision_ratio[43] 	0.0005741187277529
scalar level3_network.node[44].core_layer 	interests[44] 	13640
scalar level3_network.node[44].core_layer 	repo_load[44] 	10981
scalar level3_network.node[44].core_layer 	data[44] 	0
scalar level3_network.node[44].content_store 	p_hit[44] 	0.19494134897361
scalar level3_network.node[44].content_store 	hits[44] 	2659
scalar level3_network.node[44].content_store 	misses[44] 	10981
scalar level3_network.node[44].content_store 	decision_yes[44] 	25
scalar level3_network.node[44].content_store 	decision_no[44] 	10956
scalar level3_network.node[44].content_store 	decision_ratio[44] 	0.0022766596849103
scalar level3_network.node[45].core_layer 	interests[45] 	26026
scalar level3_network.node[45].core_layer 	repo_load[45] 	12464
scalar level3_network.node[45].core_layer 	data[45] 	8906
scalar level3_network.node[45].content_store 	p_hit[45] 	0.17878275570583
scalar level3_network.node[45].content_store 	hits[45] 	4653
scalar level3_network.node[45].content_store 	misses[45] 	21373
scalar level3_network.node[45].content_store 	decision_yes[45] 	18
scalar level3_network.node[45].content_store 	decision_no[45] 	21352
scalar level3_network.node[45].content_store 	decision_ratio[45] 	0.00084230229293402
scalar level3_network.client[2] 	hdistance[2] 	1.7074969274887
scalar level3_network.client[2] 	downloads[2] 	12205
scalar level3_network.client[2] 	avg_time[2] 	0.038348645345
scalar level3_network.client[3] 	hdistance[3] 	1.6189451022605
scalar level3_network.client[3] 	downloads[3] 	12077
scalar level3_network.client[3] 	avg_time[3] 	0.037538430605
scalar level3_network.client[4] 	hdistance[4] 	1.8001820287936
scalar level3_network.client[4] 	downloads[4] 	12086
scalar level3_network.client[4] 	avg_time[4] 	0.038279502172
scalar level3_network.client[6] 	hdistance[6] 	1.8606075655989
scalar level3_network.client[6] 	downloads[6] 	12081
scalar level3_network.client[6] 	avg_time[6] 	0.028448234937
scalar level3_network.client[7] 	hdistance[7] 	1.5064848686398
scalar level3_network.client[7] 	downloads[7] 	12028
scalar level3_network.client[7] 	avg_time[7] 	0.024641966894
scalar level3_network.client[8] 	hdistance[8] 	1.5188568555146
scalar level3_network.client[8] 	downloads[8] 	11932
scalar level3_network.client[8] 	avg_time[8] 	0.026793075684
scalar level3_network.client[9] 	hdistance[9] 	1.6754704522945
scalar level3_network.client[9] 	downloads[9] 	12116
scalar level3_network.client[9] 	avg_time[9] 	0.02945698319
scalar level3_network.client[11] 	hdistance[11] 	1.3919714688563
scalar level3_network.client[11] 	downloads[11] 	12057
scalar level3_network.client[11] 	avg_time[11] 	0.025018940114
scalar level3_network.client[12] 	hdistance[12] 	1.8253537835777
scalar level3_network.client[12] 	downloads[12] 	11801
scalar level3_network.client[12] 	avg_time[12] 	0.037663602173
scalar level3_network.client[14] 	hdistance[14] 	1.8289934902354
scalar level3_network.client[14] 	downloads[14] 	11982
scalar level3_network.client[14] 	avg_time[14] 	0.026088593686
scalar level3_network.client[15] 	hdistance[15] 	1.809233807917
scalar level3_network.client[15] 	downloads[15] 	12151
scalar level3_network.client[15] 	avg_time[15] 	0.03930740203
scalar level3_network.client[17] 	hdistance[17] 	1.4260275128703
scalar level3_network.client[17] 	downloads[17] 	11849
scalar level3_network.client[17] 	avg_time[17] 	0.033933944636
scalar level3_network.client[18] 	hdistance[18] 	1.3539630836048
scalar level3_network.client[18] 	downloads[18] 	11973
scalar level3_network.client[18] 	avg_time[18] 	0.024372113102
scalar level3_network.client[21] 	hdistance[21] 	2.2139726950952
scalar level3_network.client[21] 	downloads[21] 	11866
scalar level3_network.client[21] 	avg_time[21] 	0.037686756961
scalar level3_network.client[22] 	hdistance[22] 	1.857059848925
scalar level3_network.client[22] 	downloads[22] 	12047
scalar level3_network.client[22] 	avg_time[22] 	0.028404815996
scalar level3_network.client[23] 	hdistance[23] 	1.8458426224094
scalar level3_network.client[23] 	downloads[23] 	12111
scalar level3_network.client[23] 	avg_time[23] 	0.024910267104
scalar level3_network.client[25] 	hdistance[25] 	1.8462822331636
scalar level3_network.client[25] 	downloads[25] 	11983
scalar level3_network.client[25] 	avg_time[25] 	0.024777915413
scalar level3_network.client[27] 	hdistance[27] 	1.873810125516
scalar level3_network.client[27] 	downloads[27] 	11871
scalar level3_network.client[27] 	avg_time[27] 	0.039164244981
scalar level3_network.client[28] 	hdistance[28] 	1.832358837287
scalar level3_network.client[28] 	downloads[28] 	11972
scalar level3_network.client[28] 	avg_time[28] 	0.032589186941
scalar level3_network.client[30] 	hdistance[30] 	1.8184037716787
scalar level3_network.client[30] 	downloads[30] 	11878
scalar level3_network.client[30] 	avg_time[30] 	0.025407129348
scalar level3_network.client[31] 	hdistance[31] 	1.8563470627954
scalar level3_network.client[31] 	downloads[31] 	11848
scalar level3_network.client[31] 	avg_time[31] 	0.040741170297
scalar level3_network.client[32] 	hdistance[32] 	1.8539520316492
scalar level3_network.client[32] 	downloads[32] 	12133
scalar level3_network.client[32] 	avg_time[32] 	0.035507239871
scalar level3_network.client[33] 	hdistance[33] 	1.8702174279454
scalar level3_network.client[33] 	downloads[33] 	11866
scalar level3_network.client[33] 	avg_time[33] 	0.032247634819
scalar level3_network.client[34] 	hdistance[34] 	1.8432414480239
scalar level3_network.client[34] 	downloads[34] 	12044
scalar level3_network.client[34] 	avg_time[34] 	0.042270330835
scalar level3_network.client[36] 	hdistance[36] 	1.8973150408215
scalar level3_network.client[36] 	downloads[36] 	11881
scalar level3_network.client[36] 	avg_time[36] 	0.027484861902
scalar level3_network.client[37] 	hdistance[37] 	1.8640784770139
scalar level3_network.client[37] 	downloads[37] 	12029
scalar level3_network.client[37] 	avg_time[37] 	0.031386958792
scalar level3_network.client[38] 	hdistance[38] 	1.8730519754022
scalar level3_network.client[38] 	downloads[38] 	11871
scalar level3_network.client[38] 	avg_time[38] 	0.041025884615
scalar level3_network.client[39] 	hdistance[39] 	1.8477314582287
scalar level3_network.client[39] 	downloads[39] 	11946
scalar level3_network.client[39] 	avg_time[39] 	0.025923605066
scalar level3_network.client[40] 	hdistance[40] 	2.1476332340285
scalar level3_network.client[40] 	downloads[40] 	12084
scalar level3_network.client[40] 	avg_time[40] 	0.032420182335
scalar level3_network.client[42] 	hdistance[42] 	1.8624202766504
scalar level3_network.client[42] 	downloads[42] 	12073
scalar level3_network.client[42] 	avg_time[42] 	0.04106203876
scalar level3_network.client[43] 	hdistance[43] 	2.2455364592024
scalar level3_network.client[43] 	downloads[43] 	11986
scalar level3_network.client[43] 	avg_time[43] 	0.040394381009
scalar level3_network.client[45] 	hdistance[45] 	1.8475674788744
scalar level3_network.client[45] 	downloads[45] 	12189
scalar level3_network.client[45] 	avg_time[45] 	0.044953175434
