version 2
run General-24-20160823-12:51:08-12979
attr D ffc0.05
attr F nrr
attr R lru
attr a 0.7
attr configname General
attr datetime 20160823-12:51:08
attr experiment General
attr inifile hw5115/scenario_B/bus.ini
attr iterationvars "$net=bus, $rep=0, $a=0.7, $F=nrr, $D=ffc0.05, $R=lru, $window=60, $variance=0.05, $mytime=600, $test=test"
attr iterationvars2 "$net=bus, $rep=0, $a=0.7, $F=nrr, $D=ffc0.05, $R=lru, $window=60, $variance=0.05, $mytime=600, $test=test, $repetition=0"
attr measurement "$net=bus, $rep=0, $a=0.7, $F=nrr, $D=ffc0.05, $R=lru, $window=60, $variance=0.05, $mytime=600, $test=test"
attr mytime 600
attr net bus
attr network networks.${net=bus}_network
attr processid 12979
attr rep 0
attr repetition 0
attr replication #0
attr resultdir results
attr runnumber 24
attr seedset 0
attr test test
attr variance 0.05
attr window 60

scalar . 	a 	0.7
scalar . 	mytime 	600
scalar . 	rep 	0
scalar . 	variance 	0.05
scalar . 	window 	60
scalar bus_network.content_distribution 	repo-0 	9
scalar bus_network.content_distribution 	client-0 	5
scalar bus_network.content_distribution 	client-1 	8
scalar bus_network.content_distribution 	client-2 	9
scalar bus_network.content_distribution 	client-3 	0
scalar bus_network.content_distribution 	client-4 	1
scalar bus_network.content_distribution 	client-5 	7
scalar bus_network.content_distribution 	client-6 	6
scalar bus_network.content_distribution 	client-7 	2
scalar bus_network.content_distribution 	client-8 	4
scalar bus_network.content_distribution 	client-9 	3
scalar bus_network.content_distribution 	repo-0_card 	100000
scalar bus_network.content_distribution 	repo-0_price 	0
scalar bus_network.statistics 	stabilization_time 	1689.6
scalar bus_network.statistics 	p_hit 	0.03092003223263
scalar bus_network.statistics 	interests 	60334.4
scalar bus_network.statistics 	data 	48382.2
scalar bus_network.statistics 	hdistance 	4.9438631903028
scalar bus_network.statistics 	avg_time 	0.008142148684
scalar bus_network.statistics 	downloads 	119529
scalar bus_network.statistics 	total_cost 	0
scalar bus_network.statistics 	total_replicas 	100000
scalar bus_network.statistics 	inner_hit 	0.12709886303742
scalar bus_network.node[0].core_layer 	interests[0] 	11813
scalar bus_network.node[0].core_layer 	data[0] 	11139
scalar bus_network.node[0].core_layer 	repo_int[0] 	104337
scalar bus_network.node[0].content_store 	p_hit[0] 	0.057055785998476
scalar bus_network.node[0].content_store 	hits[0] 	674
scalar bus_network.node[0].content_store 	misses[0] 	11139
scalar bus_network.node[0].content_store 	decision_yes[0] 	5
scalar bus_network.node[0].content_store 	decision_no[0] 	11134
scalar bus_network.node[0].content_store 	decision_ratio[0] 	0.00044887332794685
scalar bus_network.node[1].core_layer 	interests[1] 	23445
scalar bus_network.node[1].core_layer 	data[1] 	22459
scalar bus_network.node[1].content_store 	p_hit[1] 	0.04214118148859
scalar bus_network.node[1].content_store 	hits[1] 	988
scalar bus_network.node[1].content_store 	misses[1] 	22457
scalar bus_network.node[1].content_store 	decision_yes[1] 	3
scalar bus_network.node[1].content_store 	decision_no[1] 	22456
scalar bus_network.node[1].content_store 	decision_ratio[1] 	0.00013357673983704
scalar bus_network.node[2].core_layer 	interests[2] 	34487
scalar bus_network.node[2].core_layer 	data[2] 	33297
scalar bus_network.node[2].content_store 	p_hit[2] 	0.034505755792038
scalar bus_network.node[2].content_store 	hits[2] 	1190
scalar bus_network.node[2].content_store 	misses[2] 	33297
scalar bus_network.node[2].content_store 	decision_yes[2] 	10
scalar bus_network.node[2].content_store 	decision_no[2] 	33287
scalar bus_network.node[2].content_store 	decision_ratio[2] 	0.00030032735681893
scalar bus_network.node[3].core_layer 	interests[3] 	45700
scalar bus_network.node[3].core_layer 	data[3] 	43915
scalar bus_network.node[3].content_store 	p_hit[3] 	0.039080962800875
scalar bus_network.node[3].content_store 	hits[3] 	1786
scalar bus_network.node[3].content_store 	misses[3] 	43914
scalar bus_network.node[3].content_store 	decision_yes[3] 	15
scalar bus_network.node[3].content_store 	decision_no[3] 	43900
scalar bus_network.node[3].content_store 	decision_ratio[3] 	0.00034156893999772
scalar bus_network.node[4].core_layer 	interests[4] 	56222
scalar bus_network.node[4].core_layer 	data[4] 	54345
scalar bus_network.node[4].content_store 	p_hit[4] 	0.033367720821031
scalar bus_network.node[4].content_store 	hits[4] 	1876
scalar bus_network.node[4].content_store 	misses[4] 	54346
scalar bus_network.node[4].content_store 	decision_yes[4] 	11
scalar bus_network.node[4].content_store 	decision_no[4] 	54334
scalar bus_network.node[4].content_store 	decision_ratio[4] 	0.00020241052534732
scalar bus_network.node[5].core_layer 	interests[5] 	66314
scalar bus_network.node[5].core_layer 	data[5] 	64762
scalar bus_network.node[5].content_store 	p_hit[5] 	0.023418885906445
scalar bus_network.node[5].content_store 	hits[5] 	1553
scalar bus_network.node[5].content_store 	misses[5] 	64761
scalar bus_network.node[5].content_store 	decision_yes[5] 	14
scalar bus_network.node[5].content_store 	decision_no[5] 	64748
scalar bus_network.node[5].content_store 	decision_ratio[5] 	0.00021617615268213
scalar bus_network.node[6].core_layer 	interests[6] 	76559
scalar bus_network.node[6].core_layer 	data[6] 	74499
scalar bus_network.node[6].content_store 	p_hit[6] 	0.026920414320981
scalar bus_network.node[6].content_store 	hits[6] 	2061
scalar bus_network.node[6].content_store 	misses[6] 	74498
scalar bus_network.node[6].content_store 	decision_yes[6] 	22
scalar bus_network.node[6].content_store 	decision_no[6] 	74477
scalar bus_network.node[6].content_store 	decision_ratio[6] 	0.00029530597726144
scalar bus_network.node[7].core_layer 	interests[7] 	86418
scalar bus_network.node[7].core_layer 	data[7] 	84705
scalar bus_network.node[7].content_store 	p_hit[7] 	0.019833830914856
scalar bus_network.node[7].content_store 	hits[7] 	1714
scalar bus_network.node[7].content_store 	misses[7] 	84704
scalar bus_network.node[7].content_store 	decision_yes[7] 	11
scalar bus_network.node[7].content_store 	decision_no[7] 	84694
scalar bus_network.node[7].content_store 	decision_ratio[7] 	0.00012986246384511
scalar bus_network.node[8].core_layer 	interests[8] 	96071
scalar bus_network.node[8].core_layer 	data[8] 	94701
scalar bus_network.node[8].content_store 	p_hit[8] 	0.014270695631356
scalar bus_network.node[8].content_store 	hits[8] 	1371
scalar bus_network.node[8].content_store 	misses[8] 	94700
scalar bus_network.node[8].content_store 	decision_yes[8] 	16
scalar bus_network.node[8].content_store 	decision_no[8] 	94685
scalar bus_network.node[8].content_store 	decision_ratio[8] 	0.00016895280936843
scalar bus_network.node[9].core_layer 	interests[9] 	106315
scalar bus_network.node[9].core_layer 	repo_load[9] 	104337
scalar bus_network.node[9].core_layer 	data[9] 	0
scalar bus_network.node[9].content_store 	p_hit[9] 	0.018605088651648
scalar bus_network.node[9].content_store 	hits[9] 	1978
scalar bus_network.node[9].content_store 	misses[9] 	104337
scalar bus_network.node[9].content_store 	decision_yes[9] 	20
scalar bus_network.node[9].content_store 	decision_no[9] 	104317
scalar bus_network.node[9].content_store 	decision_ratio[9] 	0.00019168655414666
scalar bus_network.client[0] 	hdistance[0] 	9.0143700282269
scalar bus_network.client[0] 	downloads[0] 	11691
scalar bus_network.client[0] 	avg_time[0] 	0.016309465908
scalar bus_network.client[1] 	hdistance[1] 	8.1115657620042
scalar bus_network.client[1] 	downloads[1] 	11975
scalar bus_network.client[1] 	avg_time[1] 	0.014495195329
scalar bus_network.client[2] 	hdistance[2] 	7.1828415486952
scalar bus_network.client[2] 	downloads[2] 	11726
scalar bus_network.client[2] 	avg_time[2] 	0.012637314776
scalar bus_network.client[3] 	hdistance[3] 	6.1987593052109
scalar bus_network.client[3] 	downloads[3] 	12090
scalar bus_network.client[3] 	avg_time[3] 	0.010686183895
scalar bus_network.client[4] 	hdistance[4] 	5.3126732174351
scalar bus_network.client[4] 	downloads[4] 	11907
scalar bus_network.client[4] 	avg_time[4] 	0.008915361151
scalar bus_network.client[5] 	hdistance[5] 	4.4799631120054
scalar bus_network.client[5] 	downloads[5] 	11928
scalar bus_network.client[5] 	avg_time[5] 	0.007231217674
scalar bus_network.client[6] 	hdistance[6] 	3.5978835978836
scalar bus_network.client[6] 	downloads[6] 	11907
scalar bus_network.client[6] 	avg_time[6] 	0.005473248036
scalar bus_network.client[7] 	hdistance[7] 	2.7336099585062
scalar bus_network.client[7] 	downloads[7] 	12050
scalar bus_network.client[7] 	avg_time[7] 	0.003726470033
scalar bus_network.client[8] 	hdistance[8] 	1.8582305718778
scalar bus_network.client[8] 	downloads[8] 	12083
scalar bus_network.client[8] 	avg_time[8] 	0.001947030042
scalar bus_network.client[9] 	hdistance[9] 	0.94873480118304
scalar bus_network.client[9] 	downloads[9] 	12172
scalar bus_network.client[9] 	avg_time[9] 	0
