version 2
run General-477-20160901-10:32:53-8710
attr a 0.9
attr cd ffc
attr configname General
attr cr lru
attr datetime 20160901-10:32:53
attr experiment General
attr fsize 1
attr inifile hw5115/scenario_Y/omnetp.ini
attr iterationvars "$name=tree_4_3, $un=07, $rep=20, $cd=ffc, $cr=lru, $fsize=1, $a=0.9, $sl=nrr, $ttl=1000, $variance=0.05"
attr iterationvars2 "$name=tree_4_3, $un=07, $rep=20, $cd=ffc, $cr=lru, $fsize=1, $a=0.9, $sl=nrr, $ttl=1000, $variance=0.05, $repetition=0"
attr measurement "$name=tree_4_3, $un=07, $rep=20, $cd=ffc, $cr=lru, $fsize=1, $a=0.9, $sl=nrr, $ttl=1000, $variance=0.05"
attr name tree_4_3
attr network networks.${name}_u${un}_r${rep}_network
attr processid 8710
attr rep 20
attr repetition 0
attr replication #0
attr resultdir results
attr runnumber 477
attr seedset 20
attr sl nrr
attr ttl 1000
attr un 07
attr variance 0.05

scalar . 	a 	0.9
scalar . 	fsize 	1
scalar . 	rep 	20
scalar . 	ttl 	1000
scalar . 	un 	07
scalar . 	variance 	0.05
scalar tree_4_3_u07_r20_network.content_distribution 	repo-0 	0
scalar tree_4_3_u07_r20_network.content_distribution 	client-0 	13
scalar tree_4_3_u07_r20_network.content_distribution 	client-1 	14
scalar tree_4_3_u07_r20_network.content_distribution 	client-2 	15
scalar tree_4_3_u07_r20_network.content_distribution 	client-3 	16
scalar tree_4_3_u07_r20_network.content_distribution 	client-4 	17
scalar tree_4_3_u07_r20_network.content_distribution 	client-5 	18
scalar tree_4_3_u07_r20_network.content_distribution 	client-6 	19
scalar tree_4_3_u07_r20_network.content_distribution 	client-7 	20
scalar tree_4_3_u07_r20_network.content_distribution 	client-8 	21
scalar tree_4_3_u07_r20_network.content_distribution 	client-9 	22
scalar tree_4_3_u07_r20_network.content_distribution 	client-10 	23
scalar tree_4_3_u07_r20_network.content_distribution 	client-11 	24
scalar tree_4_3_u07_r20_network.content_distribution 	client-12 	25
scalar tree_4_3_u07_r20_network.content_distribution 	client-13 	26
scalar tree_4_3_u07_r20_network.content_distribution 	client-14 	27
scalar tree_4_3_u07_r20_network.content_distribution 	client-15 	28
scalar tree_4_3_u07_r20_network.content_distribution 	client-16 	29
scalar tree_4_3_u07_r20_network.content_distribution 	client-17 	30
scalar tree_4_3_u07_r20_network.content_distribution 	client-18 	31
scalar tree_4_3_u07_r20_network.content_distribution 	client-19 	32
scalar tree_4_3_u07_r20_network.content_distribution 	client-20 	33
scalar tree_4_3_u07_r20_network.content_distribution 	client-21 	34
scalar tree_4_3_u07_r20_network.content_distribution 	client-22 	35
scalar tree_4_3_u07_r20_network.content_distribution 	client-23 	36
scalar tree_4_3_u07_r20_network.content_distribution 	client-24 	37
scalar tree_4_3_u07_r20_network.content_distribution 	client-25 	38
scalar tree_4_3_u07_r20_network.content_distribution 	client-26 	39
scalar tree_4_3_u07_r20_network.content_distribution 	repo-0_card 	100000
scalar tree_4_3_u07_r20_network.content_distribution 	repo-0_price 	0
scalar tree_4_3_u07_r20_network.statistics 	stabilization_time 	1128.5
scalar tree_4_3_u07_r20_network.statistics 	p_hit 	0.23166078365633
scalar tree_4_3_u07_r20_network.statistics 	interests 	24656.15
scalar tree_4_3_u07_r20_network.statistics 	data 	16552.725
scalar tree_4_3_u07_r20_network.statistics 	hdistance 	2.6268829568634
scalar tree_4_3_u07_r20_network.statistics 	avg_time 	0.004085463798
scalar tree_4_3_u07_r20_network.statistics 	downloads 	324139
scalar tree_4_3_u07_r20_network.statistics 	total_cost 	0
scalar tree_4_3_u07_r20_network.statistics 	total_replicas 	100000
scalar tree_4_3_u07_r20_network.statistics 	inner_hit 	0.41583394778166
scalar tree_4_3_u07_r20_network.node[0].core_layer 	interests[0] 	192033
scalar tree_4_3_u07_r20_network.node[0].core_layer 	repo_load[0] 	189351
scalar tree_4_3_u07_r20_network.node[0].core_layer 	data[0] 	0
scalar tree_4_3_u07_r20_network.node[0].core_layer 	repo_int[0] 	189351
scalar tree_4_3_u07_r20_network.node[0].content_store 	p_hit[0] 	0.013966349533674
scalar tree_4_3_u07_r20_network.node[0].content_store 	hits[0] 	2682
scalar tree_4_3_u07_r20_network.node[0].content_store 	misses[0] 	189351
scalar tree_4_3_u07_r20_network.node[0].content_store 	decision_yes[0] 	866
scalar tree_4_3_u07_r20_network.node[0].content_store 	decision_no[0] 	188485
scalar tree_4_3_u07_r20_network.node[0].content_store 	decision_ratio[0] 	0.0045735169077533
scalar tree_4_3_u07_r20_network.node[1].core_layer 	interests[1] 	69163
scalar tree_4_3_u07_r20_network.node[1].core_layer 	data[1] 	67581
scalar tree_4_3_u07_r20_network.node[1].content_store 	p_hit[1] 	0.022873501727802
scalar tree_4_3_u07_r20_network.node[1].content_store 	hits[1] 	1582
scalar tree_4_3_u07_r20_network.node[1].content_store 	misses[1] 	67581
scalar tree_4_3_u07_r20_network.node[1].content_store 	decision_yes[1] 	393
scalar tree_4_3_u07_r20_network.node[1].content_store 	decision_no[1] 	67188
scalar tree_4_3_u07_r20_network.node[1].content_store 	decision_ratio[1] 	0.0058152439295068
scalar tree_4_3_u07_r20_network.node[2].core_layer 	interests[2] 	104907
scalar tree_4_3_u07_r20_network.node[2].core_layer 	data[2] 	102763
scalar tree_4_3_u07_r20_network.node[2].content_store 	p_hit[2] 	0.020437149093959
scalar tree_4_3_u07_r20_network.node[2].content_store 	hits[2] 	2144
scalar tree_4_3_u07_r20_network.node[2].content_store 	misses[2] 	102763
scalar tree_4_3_u07_r20_network.node[2].content_store 	decision_yes[2] 	542
scalar tree_4_3_u07_r20_network.node[2].content_store 	decision_no[2] 	102221
scalar tree_4_3_u07_r20_network.node[2].content_store 	decision_ratio[2] 	0.0052742718682794
scalar tree_4_3_u07_r20_network.node[3].core_layer 	interests[3] 	32080
scalar tree_4_3_u07_r20_network.node[3].core_layer 	data[3] 	30536
scalar tree_4_3_u07_r20_network.node[3].content_store 	p_hit[3] 	0.048129675810474
scalar tree_4_3_u07_r20_network.node[3].content_store 	hits[3] 	1544
scalar tree_4_3_u07_r20_network.node[3].content_store 	misses[3] 	30536
scalar tree_4_3_u07_r20_network.node[3].content_store 	decision_yes[3] 	188
scalar tree_4_3_u07_r20_network.node[3].content_store 	decision_no[3] 	30348
scalar tree_4_3_u07_r20_network.node[3].content_store 	decision_ratio[3] 	0.0061566675399528
scalar tree_4_3_u07_r20_network.node[4].core_layer 	interests[4] 	33684
scalar tree_4_3_u07_r20_network.node[4].core_layer 	data[4] 	31789
scalar tree_4_3_u07_r20_network.node[4].content_store 	p_hit[4] 	0.05619878874243
scalar tree_4_3_u07_r20_network.node[4].content_store 	hits[4] 	1893
scalar tree_4_3_u07_r20_network.node[4].content_store 	misses[4] 	31791
scalar tree_4_3_u07_r20_network.node[4].content_store 	decision_yes[4] 	259
scalar tree_4_3_u07_r20_network.node[4].content_store 	decision_no[4] 	31530
scalar tree_4_3_u07_r20_network.node[4].content_store 	decision_ratio[4] 	0.0081474723961119
scalar tree_4_3_u07_r20_network.node[5].core_layer 	interests[5] 	27601
scalar tree_4_3_u07_r20_network.node[5].core_layer 	data[5] 	25041
scalar tree_4_3_u07_r20_network.node[5].content_store 	p_hit[5] 	0.092750262671642
scalar tree_4_3_u07_r20_network.node[5].content_store 	hits[5] 	2560
scalar tree_4_3_u07_r20_network.node[5].content_store 	misses[5] 	25041
scalar tree_4_3_u07_r20_network.node[5].content_store 	decision_yes[5] 	228
scalar tree_4_3_u07_r20_network.node[5].content_store 	decision_no[5] 	24813
scalar tree_4_3_u07_r20_network.node[5].content_store 	decision_ratio[5] 	0.0091050676889901
scalar tree_4_3_u07_r20_network.node[6].core_layer 	interests[6] 	20215
scalar tree_4_3_u07_r20_network.node[6].core_layer 	data[6] 	17570
scalar tree_4_3_u07_r20_network.node[6].content_store 	p_hit[6] 	0.13089290131091
scalar tree_4_3_u07_r20_network.node[6].content_store 	hits[6] 	2646
scalar tree_4_3_u07_r20_network.node[6].content_store 	misses[6] 	17569
scalar tree_4_3_u07_r20_network.node[6].content_store 	decision_yes[6] 	272
scalar tree_4_3_u07_r20_network.node[6].content_store 	decision_no[6] 	17298
scalar tree_4_3_u07_r20_network.node[6].content_store 	decision_ratio[6] 	0.01548093340922
scalar tree_4_3_u07_r20_network.node[7].core_layer 	interests[7] 	34451
scalar tree_4_3_u07_r20_network.node[7].core_layer 	data[7] 	32107
scalar tree_4_3_u07_r20_network.node[7].content_store 	p_hit[7] 	0.068038663609184
scalar tree_4_3_u07_r20_network.node[7].content_store 	hits[7] 	2344
scalar tree_4_3_u07_r20_network.node[7].content_store 	misses[7] 	32107
scalar tree_4_3_u07_r20_network.node[7].content_store 	decision_yes[7] 	270
scalar tree_4_3_u07_r20_network.node[7].content_store 	decision_no[7] 	31837
scalar tree_4_3_u07_r20_network.node[7].content_store 	decision_ratio[7] 	0.0084093811318404
scalar tree_4_3_u07_r20_network.node[8].core_layer 	interests[8] 	27545
scalar tree_4_3_u07_r20_network.node[8].core_layer 	data[8] 	24878
scalar tree_4_3_u07_r20_network.node[8].content_store 	p_hit[8] 	0.096823379923761
scalar tree_4_3_u07_r20_network.node[8].content_store 	hits[8] 	2667
scalar tree_4_3_u07_r20_network.node[8].content_store 	misses[8] 	24878
scalar tree_4_3_u07_r20_network.node[8].content_store 	decision_yes[8] 	269
scalar tree_4_3_u07_r20_network.node[8].content_store 	decision_no[8] 	24609
scalar tree_4_3_u07_r20_network.node[8].content_store 	decision_ratio[8] 	0.010812766299542
scalar tree_4_3_u07_r20_network.node[9].core_layer 	interests[9] 	20461
scalar tree_4_3_u07_r20_network.node[9].core_layer 	data[9] 	17579
scalar tree_4_3_u07_r20_network.node[9].content_store 	p_hit[9] 	0.14090220419334
scalar tree_4_3_u07_r20_network.node[9].content_store 	hits[9] 	2883
scalar tree_4_3_u07_r20_network.node[9].content_store 	misses[9] 	17578
scalar tree_4_3_u07_r20_network.node[9].content_store 	decision_yes[9] 	252
scalar tree_4_3_u07_r20_network.node[9].content_store 	decision_no[9] 	17327
scalar tree_4_3_u07_r20_network.node[9].content_store 	decision_ratio[9] 	0.014335286421298
scalar tree_4_3_u07_r20_network.node[10].core_layer 	interests[10] 	27754
scalar tree_4_3_u07_r20_network.node[10].core_layer 	data[10] 	25342
scalar tree_4_3_u07_r20_network.node[10].content_store 	p_hit[10] 	0.086906391871442
scalar tree_4_3_u07_r20_network.node[10].content_store 	hits[10] 	2412
scalar tree_4_3_u07_r20_network.node[10].content_store 	misses[10] 	25342
scalar tree_4_3_u07_r20_network.node[10].content_store 	decision_yes[10] 	254
scalar tree_4_3_u07_r20_network.node[10].content_store 	decision_no[10] 	25088
scalar tree_4_3_u07_r20_network.node[10].content_store 	decision_ratio[10] 	0.010022886907111
scalar tree_4_3_u07_r20_network.node[11].core_layer 	interests[11] 	43263
scalar tree_4_3_u07_r20_network.node[11].core_layer 	data[11] 	40132
scalar tree_4_3_u07_r20_network.node[11].content_store 	p_hit[11] 	0.07237131035758
scalar tree_4_3_u07_r20_network.node[11].content_store 	hits[11] 	3131
scalar tree_4_3_u07_r20_network.node[11].content_store 	misses[11] 	40132
scalar tree_4_3_u07_r20_network.node[11].content_store 	decision_yes[11] 	332
scalar tree_4_3_u07_r20_network.node[11].content_store 	decision_no[11] 	39800
scalar tree_4_3_u07_r20_network.node[11].content_store 	decision_ratio[11] 	0.008272700089704
scalar tree_4_3_u07_r20_network.node[12].core_layer 	interests[12] 	11589
scalar tree_4_3_u07_r20_network.node[12].core_layer 	data[12] 	9073
scalar tree_4_3_u07_r20_network.node[12].content_store 	p_hit[12] 	0.21710242471309
scalar tree_4_3_u07_r20_network.node[12].content_store 	hits[12] 	2516
scalar tree_4_3_u07_r20_network.node[12].content_store 	misses[12] 	9073
scalar tree_4_3_u07_r20_network.node[12].content_store 	decision_yes[12] 	170
scalar tree_4_3_u07_r20_network.node[12].content_store 	decision_no[12] 	8903
scalar tree_4_3_u07_r20_network.node[12].content_store 	decision_ratio[12] 	0.018736911716081
scalar tree_4_3_u07_r20_network.node[13].core_layer 	interests[13] 	12238
scalar tree_4_3_u07_r20_network.node[13].core_layer 	data[13] 	8672
scalar tree_4_3_u07_r20_network.node[13].content_store 	p_hit[13] 	0.29138748161464
scalar tree_4_3_u07_r20_network.node[13].content_store 	hits[13] 	3566
scalar tree_4_3_u07_r20_network.node[13].content_store 	misses[13] 	8672
scalar tree_4_3_u07_r20_network.node[13].content_store 	decision_yes[13] 	97
scalar tree_4_3_u07_r20_network.node[13].content_store 	decision_no[13] 	8575
scalar tree_4_3_u07_r20_network.node[13].content_store 	decision_ratio[13] 	0.011185424354244
scalar tree_4_3_u07_r20_network.node[14].core_layer 	interests[14] 	12666
scalar tree_4_3_u07_r20_network.node[14].core_layer 	data[14] 	8768
scalar tree_4_3_u07_r20_network.node[14].content_store 	p_hit[14] 	0.3076740881099
scalar tree_4_3_u07_r20_network.node[14].content_store 	hits[14] 	3897
scalar tree_4_3_u07_r20_network.node[14].content_store 	misses[14] 	8769
scalar tree_4_3_u07_r20_network.node[14].content_store 	decision_yes[14] 	108
scalar tree_4_3_u07_r20_network.node[14].content_store 	decision_no[14] 	8660
scalar tree_4_3_u07_r20_network.node[14].content_store 	decision_ratio[14] 	0.012317518248175
scalar tree_4_3_u07_r20_network.node[15].core_layer 	interests[15] 	12938
scalar tree_4_3_u07_r20_network.node[15].core_layer 	data[15] 	8830
scalar tree_4_3_u07_r20_network.node[15].content_store 	p_hit[15] 	0.31751429896429
scalar tree_4_3_u07_r20_network.node[15].content_store 	hits[15] 	4108
scalar tree_4_3_u07_r20_network.node[15].content_store 	misses[15] 	8830
scalar tree_4_3_u07_r20_network.node[15].content_store 	decision_yes[15] 	132
scalar tree_4_3_u07_r20_network.node[15].content_store 	decision_no[15] 	8698
scalar tree_4_3_u07_r20_network.node[15].content_store 	decision_ratio[15] 	0.014949037372593
scalar tree_4_3_u07_r20_network.node[16].core_layer 	interests[16] 	12641
scalar tree_4_3_u07_r20_network.node[16].core_layer 	data[16] 	8790
scalar tree_4_3_u07_r20_network.node[16].content_store 	p_hit[16] 	0.30464361996677
scalar tree_4_3_u07_r20_network.node[16].content_store 	hits[16] 	3851
scalar tree_4_3_u07_r20_network.node[16].content_store 	misses[16] 	8790
scalar tree_4_3_u07_r20_network.node[16].content_store 	decision_yes[16] 	114
scalar tree_4_3_u07_r20_network.node[16].content_store 	decision_no[16] 	8676
scalar tree_4_3_u07_r20_network.node[16].content_store 	decision_ratio[16] 	0.012969283276451
scalar tree_4_3_u07_r20_network.node[17].core_layer 	interests[17] 	12543
scalar tree_4_3_u07_r20_network.node[17].core_layer 	data[17] 	9011
scalar tree_4_3_u07_r20_network.node[17].content_store 	p_hit[17] 	0.28159132583911
scalar tree_4_3_u07_r20_network.node[17].content_store 	hits[17] 	3532
scalar tree_4_3_u07_r20_network.node[17].content_store 	misses[17] 	9011
scalar tree_4_3_u07_r20_network.node[17].content_store 	decision_yes[17] 	109
scalar tree_4_3_u07_r20_network.node[17].content_store 	decision_no[17] 	8902
scalar tree_4_3_u07_r20_network.node[17].content_store 	decision_ratio[17] 	0.012096326711797
scalar tree_4_3_u07_r20_network.node[18].core_layer 	interests[18] 	13019
scalar tree_4_3_u07_r20_network.node[18].core_layer 	data[18] 	8986
scalar tree_4_3_u07_r20_network.node[18].content_store 	p_hit[18] 	0.30977801674476
scalar tree_4_3_u07_r20_network.node[18].content_store 	hits[18] 	4033
scalar tree_4_3_u07_r20_network.node[18].content_store 	misses[18] 	8986
scalar tree_4_3_u07_r20_network.node[18].content_store 	decision_yes[18] 	107
scalar tree_4_3_u07_r20_network.node[18].content_store 	decision_no[18] 	8879
scalar tree_4_3_u07_r20_network.node[18].content_store 	decision_ratio[18] 	0.011907411529045
scalar tree_4_3_u07_r20_network.node[19].core_layer 	interests[19] 	12532
scalar tree_4_3_u07_r20_network.node[19].core_layer 	data[19] 	8808
scalar tree_4_3_u07_r20_network.node[19].content_store 	p_hit[19] 	0.29715927226301
scalar tree_4_3_u07_r20_network.node[19].content_store 	hits[19] 	3724
scalar tree_4_3_u07_r20_network.node[19].content_store 	misses[19] 	8808
scalar tree_4_3_u07_r20_network.node[19].content_store 	decision_yes[19] 	84
scalar tree_4_3_u07_r20_network.node[19].content_store 	decision_no[19] 	8724
scalar tree_4_3_u07_r20_network.node[19].content_store 	decision_ratio[19] 	0.0095367847411444
scalar tree_4_3_u07_r20_network.node[20].core_layer 	interests[20] 	12968
scalar tree_4_3_u07_r20_network.node[20].core_layer 	data[20] 	8845
scalar tree_4_3_u07_r20_network.node[20].content_store 	p_hit[20] 	0.31785934608267
scalar tree_4_3_u07_r20_network.node[20].content_store 	hits[20] 	4122
scalar tree_4_3_u07_r20_network.node[20].content_store 	misses[20] 	8846
scalar tree_4_3_u07_r20_network.node[20].content_store 	decision_yes[20] 	103
scalar tree_4_3_u07_r20_network.node[20].content_store 	decision_no[20] 	8742
scalar tree_4_3_u07_r20_network.node[20].content_store 	decision_ratio[20] 	0.011644997173544
scalar tree_4_3_u07_r20_network.node[21].core_layer 	interests[21] 	12353
scalar tree_4_3_u07_r20_network.node[21].core_layer 	data[21] 	8714
scalar tree_4_3_u07_r20_network.node[21].content_store 	p_hit[21] 	0.29458431150328
scalar tree_4_3_u07_r20_network.node[21].content_store 	hits[21] 	3639
scalar tree_4_3_u07_r20_network.node[21].content_store 	misses[21] 	8714
scalar tree_4_3_u07_r20_network.node[21].content_store 	decision_yes[21] 	101
scalar tree_4_3_u07_r20_network.node[21].content_store 	decision_no[21] 	8613
scalar tree_4_3_u07_r20_network.node[21].content_store 	decision_ratio[21] 	0.011590543952261
scalar tree_4_3_u07_r20_network.node[22].core_layer 	interests[22] 	12386
scalar tree_4_3_u07_r20_network.node[22].core_layer 	data[22] 	8723
scalar tree_4_3_u07_r20_network.node[22].content_store 	p_hit[22] 	0.29573712255773
scalar tree_4_3_u07_r20_network.node[22].content_store 	hits[22] 	3663
scalar tree_4_3_u07_r20_network.node[22].content_store 	misses[22] 	8723
scalar tree_4_3_u07_r20_network.node[22].content_store 	decision_yes[22] 	101
scalar tree_4_3_u07_r20_network.node[22].content_store 	decision_no[22] 	8622
scalar tree_4_3_u07_r20_network.node[22].content_store 	decision_ratio[22] 	0.011578585349077
scalar tree_4_3_u07_r20_network.node[23].core_layer 	interests[23] 	12660
scalar tree_4_3_u07_r20_network.node[23].core_layer 	data[23] 	8754
scalar tree_4_3_u07_r20_network.node[23].content_store 	p_hit[23] 	0.3085308056872
scalar tree_4_3_u07_r20_network.node[23].content_store 	hits[23] 	3906
scalar tree_4_3_u07_r20_network.node[23].content_store 	misses[23] 	8754
scalar tree_4_3_u07_r20_network.node[23].content_store 	decision_yes[23] 	121
scalar tree_4_3_u07_r20_network.node[23].content_store 	decision_no[23] 	8633
scalar tree_4_3_u07_r20_network.node[23].content_store 	decision_ratio[23] 	0.013822252684487
scalar tree_4_3_u07_r20_network.node[24].core_layer 	interests[24] 	12971
scalar tree_4_3_u07_r20_network.node[24].core_layer 	data[24] 	8905
scalar tree_4_3_u07_r20_network.node[24].content_store 	p_hit[24] 	0.31346850666872
scalar tree_4_3_u07_r20_network.node[24].content_store 	hits[24] 	4066
scalar tree_4_3_u07_r20_network.node[24].content_store 	misses[24] 	8905
scalar tree_4_3_u07_r20_network.node[24].content_store 	decision_yes[24] 	122
scalar tree_4_3_u07_r20_network.node[24].content_store 	decision_no[24] 	8783
scalar tree_4_3_u07_r20_network.node[24].content_store 	decision_ratio[24] 	0.013700168444694
scalar tree_4_3_u07_r20_network.node[25].core_layer 	interests[25] 	12835
scalar tree_4_3_u07_r20_network.node[25].core_layer 	data[25] 	8776
scalar tree_4_3_u07_r20_network.node[25].content_store 	p_hit[25] 	0.31624464355279
scalar tree_4_3_u07_r20_network.node[25].content_store 	hits[25] 	4059
scalar tree_4_3_u07_r20_network.node[25].content_store 	misses[25] 	8776
scalar tree_4_3_u07_r20_network.node[25].content_store 	decision_yes[25] 	119
scalar tree_4_3_u07_r20_network.node[25].content_store 	decision_no[25] 	8657
scalar tree_4_3_u07_r20_network.node[25].content_store 	decision_ratio[25] 	0.013559708295351
scalar tree_4_3_u07_r20_network.node[26].core_layer 	interests[26] 	12122
scalar tree_4_3_u07_r20_network.node[26].core_layer 	data[26] 	8597
scalar tree_4_3_u07_r20_network.node[26].content_store 	p_hit[26] 	0.2907935984161
scalar tree_4_3_u07_r20_network.node[26].content_store 	hits[26] 	3525
scalar tree_4_3_u07_r20_network.node[26].content_store 	misses[26] 	8597
scalar tree_4_3_u07_r20_network.node[26].content_store 	decision_yes[26] 	105
scalar tree_4_3_u07_r20_network.node[26].content_store 	decision_no[26] 	8492
scalar tree_4_3_u07_r20_network.node[26].content_store 	decision_ratio[26] 	0.012213562870769
scalar tree_4_3_u07_r20_network.node[27].core_layer 	interests[27] 	12922
scalar tree_4_3_u07_r20_network.node[27].core_layer 	data[27] 	8927
scalar tree_4_3_u07_r20_network.node[27].content_store 	p_hit[27] 	0.3091626683176
scalar tree_4_3_u07_r20_network.node[27].content_store 	hits[27] 	3995
scalar tree_4_3_u07_r20_network.node[27].content_store 	misses[27] 	8927
scalar tree_4_3_u07_r20_network.node[27].content_store 	decision_yes[27] 	134
scalar tree_4_3_u07_r20_network.node[27].content_store 	decision_no[27] 	8793
scalar tree_4_3_u07_r20_network.node[27].content_store 	decision_ratio[27] 	0.01501064187297
scalar tree_4_3_u07_r20_network.node[28].core_layer 	interests[28] 	12372
scalar tree_4_3_u07_r20_network.node[28].core_layer 	data[28] 	8833
scalar tree_4_3_u07_r20_network.node[28].content_store 	p_hit[28] 	0.28612997090204
scalar tree_4_3_u07_r20_network.node[28].content_store 	hits[28] 	3540
scalar tree_4_3_u07_r20_network.node[28].content_store 	misses[28] 	8832
scalar tree_4_3_u07_r20_network.node[28].content_store 	decision_yes[28] 	111
scalar tree_4_3_u07_r20_network.node[28].content_store 	decision_no[28] 	8722
scalar tree_4_3_u07_r20_network.node[28].content_store 	decision_ratio[28] 	0.012566511943847
scalar tree_4_3_u07_r20_network.node[29].core_layer 	interests[29] 	13000
scalar tree_4_3_u07_r20_network.node[29].core_layer 	data[29] 	8911
scalar tree_4_3_u07_r20_network.node[29].content_store 	p_hit[29] 	0.31453846153846
scalar tree_4_3_u07_r20_network.node[29].content_store 	hits[29] 	4089
scalar tree_4_3_u07_r20_network.node[29].content_store 	misses[29] 	8911
scalar tree_4_3_u07_r20_network.node[29].content_store 	decision_yes[29] 	122
scalar tree_4_3_u07_r20_network.node[29].content_store 	decision_no[29] 	8789
scalar tree_4_3_u07_r20_network.node[29].content_store 	decision_ratio[29] 	0.013690943777354
scalar tree_4_3_u07_r20_network.node[30].core_layer 	interests[30] 	12316
scalar tree_4_3_u07_r20_network.node[30].core_layer 	data[30] 	8713
scalar tree_4_3_u07_r20_network.node[30].content_store 	p_hit[30] 	0.29254628126015
scalar tree_4_3_u07_r20_network.node[30].content_store 	hits[30] 	3603
scalar tree_4_3_u07_r20_network.node[30].content_store 	misses[30] 	8713
scalar tree_4_3_u07_r20_network.node[30].content_store 	decision_yes[30] 	107
scalar tree_4_3_u07_r20_network.node[30].content_store 	decision_no[30] 	8606
scalar tree_4_3_u07_r20_network.node[30].content_store 	decision_ratio[30] 	0.012280500401699
scalar tree_4_3_u07_r20_network.node[31].core_layer 	interests[31] 	12525
scalar tree_4_3_u07_r20_network.node[31].core_layer 	data[31] 	8906
scalar tree_4_3_u07_r20_network.node[31].content_store 	p_hit[31] 	0.28894211576846
scalar tree_4_3_u07_r20_network.node[31].content_store 	hits[31] 	3619
scalar tree_4_3_u07_r20_network.node[31].content_store 	misses[31] 	8906
scalar tree_4_3_u07_r20_network.node[31].content_store 	decision_yes[31] 	114
scalar tree_4_3_u07_r20_network.node[31].content_store 	decision_no[31] 	8792
scalar tree_4_3_u07_r20_network.node[31].content_store 	decision_ratio[31] 	0.012800359308331
scalar tree_4_3_u07_r20_network.node[32].core_layer 	interests[32] 	12938
scalar tree_4_3_u07_r20_network.node[32].core_layer 	data[32] 	8877
scalar tree_4_3_u07_r20_network.node[32].content_store 	p_hit[32] 	0.31380429741846
scalar tree_4_3_u07_r20_network.node[32].content_store 	hits[32] 	4060
scalar tree_4_3_u07_r20_network.node[32].content_store 	misses[32] 	8878
scalar tree_4_3_u07_r20_network.node[32].content_store 	decision_yes[32] 	124
scalar tree_4_3_u07_r20_network.node[32].content_store 	decision_no[32] 	8753
scalar tree_4_3_u07_r20_network.node[32].content_store 	decision_ratio[32] 	0.013968683113665
scalar tree_4_3_u07_r20_network.node[33].core_layer 	interests[33] 	12815
scalar tree_4_3_u07_r20_network.node[33].core_layer 	data[33] 	8804
scalar tree_4_3_u07_r20_network.node[33].content_store 	p_hit[33] 	0.31299258681233
scalar tree_4_3_u07_r20_network.node[33].content_store 	hits[33] 	4011
scalar tree_4_3_u07_r20_network.node[33].content_store 	misses[33] 	8804
scalar tree_4_3_u07_r20_network.node[33].content_store 	decision_yes[33] 	94
scalar tree_4_3_u07_r20_network.node[33].content_store 	decision_no[33] 	8710
scalar tree_4_3_u07_r20_network.node[33].content_store 	decision_ratio[33] 	0.010676965015902
scalar tree_4_3_u07_r20_network.node[34].core_layer 	interests[34] 	12865
scalar tree_4_3_u07_r20_network.node[34].core_layer 	data[34] 	8741
scalar tree_4_3_u07_r20_network.node[34].content_store 	p_hit[34] 	0.32055965798679
scalar tree_4_3_u07_r20_network.node[34].content_store 	hits[34] 	4124
scalar tree_4_3_u07_r20_network.node[34].content_store 	misses[34] 	8741
scalar tree_4_3_u07_r20_network.node[34].content_store 	decision_yes[34] 	129
scalar tree_4_3_u07_r20_network.node[34].content_store 	decision_no[34] 	8612
scalar tree_4_3_u07_r20_network.node[34].content_store 	decision_ratio[34] 	0.01475803683789
scalar tree_4_3_u07_r20_network.node[35].core_layer 	interests[35] 	12485
scalar tree_4_3_u07_r20_network.node[35].core_layer 	data[35] 	8927
scalar tree_4_3_u07_r20_network.node[35].content_store 	p_hit[35] 	0.28498197837405
scalar tree_4_3_u07_r20_network.node[35].content_store 	hits[35] 	3558
scalar tree_4_3_u07_r20_network.node[35].content_store 	misses[35] 	8927
scalar tree_4_3_u07_r20_network.node[35].content_store 	decision_yes[35] 	113
scalar tree_4_3_u07_r20_network.node[35].content_store 	decision_no[35] 	8814
scalar tree_4_3_u07_r20_network.node[35].content_store 	decision_ratio[35] 	0.012658227848101
scalar tree_4_3_u07_r20_network.node[36].core_layer 	interests[36] 	12766
scalar tree_4_3_u07_r20_network.node[36].core_layer 	data[36] 	8659
scalar tree_4_3_u07_r20_network.node[36].content_store 	p_hit[36] 	0.32171392762024
scalar tree_4_3_u07_r20_network.node[36].content_store 	hits[36] 	4107
scalar tree_4_3_u07_r20_network.node[36].content_store 	misses[36] 	8659
scalar tree_4_3_u07_r20_network.node[36].content_store 	decision_yes[36] 	116
scalar tree_4_3_u07_r20_network.node[36].content_store 	decision_no[36] 	8543
scalar tree_4_3_u07_r20_network.node[36].content_store 	decision_ratio[36] 	0.013396466104631
scalar tree_4_3_u07_r20_network.node[37].core_layer 	interests[37] 	12769
scalar tree_4_3_u07_r20_network.node[37].core_layer 	data[37] 	8805
scalar tree_4_3_u07_r20_network.node[37].content_store 	p_hit[37] 	0.31043934528937
scalar tree_4_3_u07_r20_network.node[37].content_store 	hits[37] 	3964
scalar tree_4_3_u07_r20_network.node[37].content_store 	misses[37] 	8805
scalar tree_4_3_u07_r20_network.node[37].content_store 	decision_yes[37] 	108
scalar tree_4_3_u07_r20_network.node[37].content_store 	decision_no[37] 	8697
scalar tree_4_3_u07_r20_network.node[37].content_store 	decision_ratio[37] 	0.012265758091993
scalar tree_4_3_u07_r20_network.node[38].core_layer 	interests[38] 	12718
scalar tree_4_3_u07_r20_network.node[38].core_layer 	data[38] 	8730
scalar tree_4_3_u07_r20_network.node[38].content_store 	p_hit[38] 	0.31357131624469
scalar tree_4_3_u07_r20_network.node[38].content_store 	hits[38] 	3988
scalar tree_4_3_u07_r20_network.node[38].content_store 	misses[38] 	8730
scalar tree_4_3_u07_r20_network.node[38].content_store 	decision_yes[38] 	100
scalar tree_4_3_u07_r20_network.node[38].content_store 	decision_no[38] 	8630
scalar tree_4_3_u07_r20_network.node[38].content_store 	decision_ratio[38] 	0.011454753722795
scalar tree_4_3_u07_r20_network.node[39].core_layer 	interests[39] 	12137
scalar tree_4_3_u07_r20_network.node[39].core_layer 	data[39] 	8706
scalar tree_4_3_u07_r20_network.node[39].content_store 	p_hit[39] 	0.28268929719041
scalar tree_4_3_u07_r20_network.node[39].content_store 	hits[39] 	3431
scalar tree_4_3_u07_r20_network.node[39].content_store 	misses[39] 	8706
scalar tree_4_3_u07_r20_network.node[39].content_store 	decision_yes[39] 	100
scalar tree_4_3_u07_r20_network.node[39].content_store 	decision_no[39] 	8606
scalar tree_4_3_u07_r20_network.node[39].content_store 	decision_ratio[39] 	0.011486331265794
scalar tree_4_3_u07_r20_network.client[13] 	hdistance[13] 	2.6728036990332
scalar tree_4_3_u07_r20_network.client[13] 	downloads[13] 	11895
scalar tree_4_3_u07_r20_network.client[13] 	avg_time[13] 	0.004159316865
scalar tree_4_3_u07_r20_network.client[14] 	hdistance[14] 	2.6042624320936
scalar tree_4_3_u07_r20_network.client[14] 	downloads[14] 	11965
scalar tree_4_3_u07_r20_network.client[14] 	avg_time[14] 	0.004026170682
scalar tree_4_3_u07_r20_network.client[15] 	hdistance[15] 	2.6147049016339
scalar tree_4_3_u07_r20_network.client[15] 	downloads[15] 	11996
scalar tree_4_3_u07_r20_network.client[15] 	avg_time[15] 	0.004044678572
scalar tree_4_3_u07_r20_network.client[16] 	hdistance[16] 	2.6104641490601
scalar tree_4_3_u07_r20_network.client[16] 	downloads[16] 	12022
scalar tree_4_3_u07_r20_network.client[16] 	avg_time[16] 	0.00403448973
scalar tree_4_3_u07_r20_network.client[17] 	hdistance[17] 	2.6863547120419
scalar tree_4_3_u07_r20_network.client[17] 	downloads[17] 	12224
scalar tree_4_3_u07_r20_network.client[17] 	avg_time[17] 	0.004172444571
scalar tree_4_3_u07_r20_network.client[18] 	hdistance[18] 	2.6162316476346
scalar tree_4_3_u07_r20_network.client[18] 	downloads[18] 	12260
scalar tree_4_3_u07_r20_network.client[18] 	avg_time[18] 	0.004037354197
scalar tree_4_3_u07_r20_network.client[19] 	hdistance[19] 	2.6408364083641
scalar tree_4_3_u07_r20_network.client[19] 	downloads[19] 	12195
scalar tree_4_3_u07_r20_network.client[19] 	avg_time[19] 	0.004091495765
scalar tree_4_3_u07_r20_network.client[20] 	hdistance[20] 	2.5891338452646
scalar tree_4_3_u07_r20_network.client[20] 	downloads[20] 	12111
scalar tree_4_3_u07_r20_network.client[20] 	avg_time[20] 	0.003996636934
scalar tree_4_3_u07_r20_network.client[21] 	hdistance[21] 	2.650350233489
scalar tree_4_3_u07_r20_network.client[21] 	downloads[21] 	11992
scalar tree_4_3_u07_r20_network.client[21] 	avg_time[21] 	0.004114066829
scalar tree_4_3_u07_r20_network.client[22] 	hdistance[22] 	2.656703957255
scalar tree_4_3_u07_r20_network.client[22] 	downloads[22] 	11978
scalar tree_4_3_u07_r20_network.client[22] 	avg_time[22] 	0.004163129396
scalar tree_4_3_u07_r20_network.client[23] 	hdistance[23] 	2.6428753072815
scalar tree_4_3_u07_r20_network.client[23] 	downloads[23] 	11797
scalar tree_4_3_u07_r20_network.client[23] 	avg_time[23] 	0.004108499193
scalar tree_4_3_u07_r20_network.client[24] 	hdistance[24] 	2.6100555878205
scalar tree_4_3_u07_r20_network.client[24] 	downloads[24] 	12053
scalar tree_4_3_u07_r20_network.client[24] 	avg_time[24] 	0.004066702374
scalar tree_4_3_u07_r20_network.client[25] 	hdistance[25] 	2.5932698730795
scalar tree_4_3_u07_r20_network.client[25] 	downloads[25] 	11976
scalar tree_4_3_u07_r20_network.client[25] 	avg_time[25] 	0.004040244168
scalar tree_4_3_u07_r20_network.client[26] 	hdistance[26] 	2.6680306905371
scalar tree_4_3_u07_r20_network.client[26] 	downloads[26] 	11730
scalar tree_4_3_u07_r20_network.client[26] 	avg_time[26] 	0.004167260486
scalar tree_4_3_u07_r20_network.client[27] 	hdistance[27] 	2.613619356448
scalar tree_4_3_u07_r20_network.client[27] 	downloads[27] 	12027
scalar tree_4_3_u07_r20_network.client[27] 	avg_time[27] 	0.004075493778
scalar tree_4_3_u07_r20_network.client[28] 	hdistance[28] 	2.6618603100517
scalar tree_4_3_u07_r20_network.client[28] 	downloads[28] 	11998
scalar tree_4_3_u07_r20_network.client[28] 	avg_time[28] 	0.004165799587
scalar tree_4_3_u07_r20_network.client[29] 	hdistance[29] 	2.6178491596987
scalar tree_4_3_u07_r20_network.client[29] 	downloads[29] 	12079
scalar tree_4_3_u07_r20_network.client[29] 	avg_time[29] 	0.004075334365
scalar tree_4_3_u07_r20_network.client[30] 	hdistance[30] 	2.6608315098468
scalar tree_4_3_u07_r20_network.client[30] 	downloads[30] 	11882
scalar tree_4_3_u07_r20_network.client[30] 	avg_time[30] 	0.004164952425
scalar tree_4_3_u07_r20_network.client[31] 	hdistance[31] 	2.6545231273025
scalar tree_4_3_u07_r20_network.client[31] 	downloads[31] 	12215
scalar tree_4_3_u07_r20_network.client[31] 	avg_time[31] 	0.004124270419
scalar tree_4_3_u07_r20_network.client[32] 	hdistance[32] 	2.5982485404504
scalar tree_4_3_u07_r20_network.client[32] 	downloads[32] 	11990
scalar tree_4_3_u07_r20_network.client[32] 	avg_time[32] 	0.004061797565
scalar tree_4_3_u07_r20_network.client[33] 	hdistance[33] 	2.5832304780712
scalar tree_4_3_u07_r20_network.client[33] 	downloads[33] 	12153
scalar tree_4_3_u07_r20_network.client[33] 	avg_time[33] 	0.003987325195
scalar tree_4_3_u07_r20_network.client[34] 	hdistance[34] 	2.5800100959112
scalar tree_4_3_u07_r20_network.client[34] 	downloads[34] 	11886
scalar tree_4_3_u07_r20_network.client[34] 	avg_time[34] 	0.004028097334
scalar tree_4_3_u07_r20_network.client[35] 	hdistance[35] 	2.6806064645118
scalar tree_4_3_u07_r20_network.client[35] 	downloads[35] 	12004
scalar tree_4_3_u07_r20_network.client[35] 	avg_time[35] 	0.004208260899
scalar tree_4_3_u07_r20_network.client[36] 	hdistance[36] 	2.5585026019809
scalar tree_4_3_u07_r20_network.client[36] 	downloads[36] 	11914
scalar tree_4_3_u07_r20_network.client[36] 	avg_time[36] 	0.003988917598
scalar tree_4_3_u07_r20_network.client[37] 	hdistance[37] 	2.5943075263464
scalar tree_4_3_u07_r20_network.client[37] 	downloads[37] 	12051
scalar tree_4_3_u07_r20_network.client[37] 	avg_time[37] 	0.004011946207
scalar tree_4_3_u07_r20_network.client[38] 	hdistance[38] 	2.593873934689
scalar tree_4_3_u07_r20_network.client[38] 	downloads[38] 	11851
scalar tree_4_3_u07_r20_network.client[38] 	avg_time[38] 	0.004042525117
scalar tree_4_3_u07_r20_network.client[39] 	hdistance[39] 	2.672299285414
scalar tree_4_3_u07_r20_network.client[39] 	downloads[39] 	11895
scalar tree_4_3_u07_r20_network.client[39] 	avg_time[39] 	0.004150312299
