version 2
run General-450-20160901-09:34:29-8710
attr a 0.9
attr cd ffc
attr configname General
attr cr lru
attr datetime 20160901-09:34:29
attr experiment General
attr fsize 1
attr inifile hw5115/scenario_Y/omnetp.ini
attr iterationvars "$name=tree_4_3, $un=07, $rep=11, $cd=ffc, $cr=lru, $fsize=1, $a=0.9, $sl=nrr, $ttl=1000, $variance=0.05"
attr iterationvars2 "$name=tree_4_3, $un=07, $rep=11, $cd=ffc, $cr=lru, $fsize=1, $a=0.9, $sl=nrr, $ttl=1000, $variance=0.05, $repetition=0"
attr measurement "$name=tree_4_3, $un=07, $rep=11, $cd=ffc, $cr=lru, $fsize=1, $a=0.9, $sl=nrr, $ttl=1000, $variance=0.05"
attr name tree_4_3
attr network networks.${name}_u${un}_r${rep}_network
attr processid 8710
attr rep 11
attr repetition 0
attr replication #0
attr resultdir results
attr runnumber 450
attr seedset 11
attr sl nrr
attr ttl 1000
attr un 07
attr variance 0.05

scalar . 	a 	0.9
scalar . 	fsize 	1
scalar . 	rep 	11
scalar . 	ttl 	1000
scalar . 	un 	07
scalar . 	variance 	0.05
scalar tree_4_3_u07_r11_network.content_distribution 	repo-0 	0
scalar tree_4_3_u07_r11_network.content_distribution 	client-0 	13
scalar tree_4_3_u07_r11_network.content_distribution 	client-1 	14
scalar tree_4_3_u07_r11_network.content_distribution 	client-2 	15
scalar tree_4_3_u07_r11_network.content_distribution 	client-3 	16
scalar tree_4_3_u07_r11_network.content_distribution 	client-4 	17
scalar tree_4_3_u07_r11_network.content_distribution 	client-5 	18
scalar tree_4_3_u07_r11_network.content_distribution 	client-6 	19
scalar tree_4_3_u07_r11_network.content_distribution 	client-7 	20
scalar tree_4_3_u07_r11_network.content_distribution 	client-8 	21
scalar tree_4_3_u07_r11_network.content_distribution 	client-9 	22
scalar tree_4_3_u07_r11_network.content_distribution 	client-10 	23
scalar tree_4_3_u07_r11_network.content_distribution 	client-11 	24
scalar tree_4_3_u07_r11_network.content_distribution 	client-12 	25
scalar tree_4_3_u07_r11_network.content_distribution 	client-13 	26
scalar tree_4_3_u07_r11_network.content_distribution 	client-14 	27
scalar tree_4_3_u07_r11_network.content_distribution 	client-15 	28
scalar tree_4_3_u07_r11_network.content_distribution 	client-16 	29
scalar tree_4_3_u07_r11_network.content_distribution 	client-17 	30
scalar tree_4_3_u07_r11_network.content_distribution 	client-18 	31
scalar tree_4_3_u07_r11_network.content_distribution 	client-19 	32
scalar tree_4_3_u07_r11_network.content_distribution 	client-20 	33
scalar tree_4_3_u07_r11_network.content_distribution 	client-21 	34
scalar tree_4_3_u07_r11_network.content_distribution 	client-22 	35
scalar tree_4_3_u07_r11_network.content_distribution 	client-23 	36
scalar tree_4_3_u07_r11_network.content_distribution 	client-24 	37
scalar tree_4_3_u07_r11_network.content_distribution 	client-25 	38
scalar tree_4_3_u07_r11_network.content_distribution 	client-26 	39
scalar tree_4_3_u07_r11_network.content_distribution 	repo-0_card 	100000
scalar tree_4_3_u07_r11_network.content_distribution 	repo-0_price 	0
scalar tree_4_3_u07_r11_network.statistics 	stabilization_time 	1084.8
scalar tree_4_3_u07_r11_network.statistics 	p_hit 	0.23831234933212
scalar tree_4_3_u07_r11_network.statistics 	interests 	24781
scalar tree_4_3_u07_r11_network.statistics 	data 	16682.25
scalar tree_4_3_u07_r11_network.statistics 	hdistance 	2.6178799699468
scalar tree_4_3_u07_r11_network.statistics 	avg_time 	0.004119767145
scalar tree_4_3_u07_r11_network.statistics 	downloads 	323947
scalar tree_4_3_u07_r11_network.statistics 	total_cost 	0
scalar tree_4_3_u07_r11_network.statistics 	total_replicas 	100000
scalar tree_4_3_u07_r11_network.statistics 	inner_hit 	0.4420414450512
scalar tree_4_3_u07_r11_network.node[0].core_layer 	interests[0] 	182987
scalar tree_4_3_u07_r11_network.node[0].core_layer 	repo_load[0] 	180749
scalar tree_4_3_u07_r11_network.node[0].core_layer 	data[0] 	0
scalar tree_4_3_u07_r11_network.node[0].core_layer 	repo_int[0] 	180749
scalar tree_4_3_u07_r11_network.node[0].content_store 	p_hit[0] 	0.012230377021318
scalar tree_4_3_u07_r11_network.node[0].content_store 	hits[0] 	2238
scalar tree_4_3_u07_r11_network.node[0].content_store 	misses[0] 	180749
scalar tree_4_3_u07_r11_network.node[0].content_store 	decision_yes[0] 	754
scalar tree_4_3_u07_r11_network.node[0].content_store 	decision_no[0] 	179995
scalar tree_4_3_u07_r11_network.node[0].content_store 	decision_ratio[0] 	0.0041715306862002
scalar tree_4_3_u07_r11_network.node[1].core_layer 	interests[1] 	139554
scalar tree_4_3_u07_r11_network.node[1].core_layer 	data[1] 	136721
scalar tree_4_3_u07_r11_network.node[1].content_store 	p_hit[1] 	0.020278888458948
scalar tree_4_3_u07_r11_network.node[1].content_store 	hits[1] 	2830
scalar tree_4_3_u07_r11_network.node[1].content_store 	misses[1] 	136724
scalar tree_4_3_u07_r11_network.node[1].content_store 	decision_yes[1] 	670
scalar tree_4_3_u07_r11_network.node[1].content_store 	decision_no[1] 	136051
scalar tree_4_3_u07_r11_network.node[1].content_store 	decision_ratio[1] 	0.0049004907804946
scalar tree_4_3_u07_r11_network.node[2].core_layer 	interests[2] 	48591
scalar tree_4_3_u07_r11_network.node[2].core_layer 	data[2] 	45609
scalar tree_4_3_u07_r11_network.node[2].content_store 	p_hit[2] 	0.06134880945031
scalar tree_4_3_u07_r11_network.node[2].content_store 	hits[2] 	2981
scalar tree_4_3_u07_r11_network.node[2].content_store 	misses[2] 	45610
scalar tree_4_3_u07_r11_network.node[2].content_store 	decision_yes[2] 	313
scalar tree_4_3_u07_r11_network.node[2].content_store 	decision_no[2] 	45296
scalar tree_4_3_u07_r11_network.node[2].content_store 	decision_ratio[2] 	0.0068626806112829
scalar tree_4_3_u07_r11_network.node[3].core_layer 	interests[3] 	21778
scalar tree_4_3_u07_r11_network.node[3].core_layer 	data[3] 	18016
scalar tree_4_3_u07_r11_network.node[3].content_store 	p_hit[3] 	0.17274313527413
scalar tree_4_3_u07_r11_network.node[3].content_store 	hits[3] 	3762
scalar tree_4_3_u07_r11_network.node[3].content_store 	misses[3] 	18016
scalar tree_4_3_u07_r11_network.node[3].content_store 	decision_yes[3] 	328
scalar tree_4_3_u07_r11_network.node[3].content_store 	decision_no[3] 	17688
scalar tree_4_3_u07_r11_network.node[3].content_store 	decision_ratio[3] 	0.018206039076377
scalar tree_4_3_u07_r11_network.node[4].core_layer 	interests[4] 	34717
scalar tree_4_3_u07_r11_network.node[4].core_layer 	data[4] 	32303
scalar tree_4_3_u07_r11_network.node[4].content_store 	p_hit[4] 	0.069533657862142
scalar tree_4_3_u07_r11_network.node[4].content_store 	hits[4] 	2414
scalar tree_4_3_u07_r11_network.node[4].content_store 	misses[4] 	32303
scalar tree_4_3_u07_r11_network.node[4].content_store 	decision_yes[4] 	273
scalar tree_4_3_u07_r11_network.node[4].content_store 	decision_no[4] 	32030
scalar tree_4_3_u07_r11_network.node[4].content_store 	decision_ratio[4] 	0.0084512274401758
scalar tree_4_3_u07_r11_network.node[5].core_layer 	interests[5] 	20062
scalar tree_4_3_u07_r11_network.node[5].core_layer 	data[5] 	16849
scalar tree_4_3_u07_r11_network.node[5].content_store 	p_hit[5] 	0.16010367859635
scalar tree_4_3_u07_r11_network.node[5].content_store 	hits[5] 	3212
scalar tree_4_3_u07_r11_network.node[5].content_store 	misses[5] 	16850
scalar tree_4_3_u07_r11_network.node[5].content_store 	decision_yes[5] 	179
scalar tree_4_3_u07_r11_network.node[5].content_store 	decision_no[5] 	16670
scalar tree_4_3_u07_r11_network.node[5].content_store 	decision_ratio[5] 	0.010623775891744
scalar tree_4_3_u07_r11_network.node[6].core_layer 	interests[6] 	30626
scalar tree_4_3_u07_r11_network.node[6].core_layer 	data[6] 	27197
scalar tree_4_3_u07_r11_network.node[6].content_store 	p_hit[6] 	0.11196369098152
scalar tree_4_3_u07_r11_network.node[6].content_store 	hits[6] 	3429
scalar tree_4_3_u07_r11_network.node[6].content_store 	misses[6] 	27197
scalar tree_4_3_u07_r11_network.node[6].content_store 	decision_yes[6] 	438
scalar tree_4_3_u07_r11_network.node[6].content_store 	decision_no[6] 	26759
scalar tree_4_3_u07_r11_network.node[6].content_store 	decision_ratio[6] 	0.01610471743207
scalar tree_4_3_u07_r11_network.node[7].core_layer 	interests[7] 	45264
scalar tree_4_3_u07_r11_network.node[7].core_layer 	data[7] 	41602
scalar tree_4_3_u07_r11_network.node[7].content_store 	p_hit[7] 	0.080881053375751
scalar tree_4_3_u07_r11_network.node[7].content_store 	hits[7] 	3661
scalar tree_4_3_u07_r11_network.node[7].content_store 	misses[7] 	41603
scalar tree_4_3_u07_r11_network.node[7].content_store 	decision_yes[7] 	365
scalar tree_4_3_u07_r11_network.node[7].content_store 	decision_no[7] 	41237
scalar tree_4_3_u07_r11_network.node[7].content_store 	decision_ratio[7] 	0.0087736166530455
scalar tree_4_3_u07_r11_network.node[8].core_layer 	interests[8] 	19315
scalar tree_4_3_u07_r11_network.node[8].core_layer 	data[8] 	17067
scalar tree_4_3_u07_r11_network.node[8].content_store 	p_hit[8] 	0.11638622831996
scalar tree_4_3_u07_r11_network.node[8].content_store 	hits[8] 	2248
scalar tree_4_3_u07_r11_network.node[8].content_store 	misses[8] 	17067
scalar tree_4_3_u07_r11_network.node[8].content_store 	decision_yes[8] 	222
scalar tree_4_3_u07_r11_network.node[8].content_store 	decision_no[8] 	16845
scalar tree_4_3_u07_r11_network.node[8].content_store 	decision_ratio[8] 	0.013007558446124
scalar tree_4_3_u07_r11_network.node[9].core_layer 	interests[9] 	20722
scalar tree_4_3_u07_r11_network.node[9].core_layer 	data[9] 	17714
scalar tree_4_3_u07_r11_network.node[9].content_store 	p_hit[9] 	0.14511147572628
scalar tree_4_3_u07_r11_network.node[9].content_store 	hits[9] 	3007
scalar tree_4_3_u07_r11_network.node[9].content_store 	misses[9] 	17715
scalar tree_4_3_u07_r11_network.node[9].content_store 	decision_yes[9] 	270
scalar tree_4_3_u07_r11_network.node[9].content_store 	decision_no[9] 	17444
scalar tree_4_3_u07_r11_network.node[9].content_store 	decision_ratio[9] 	0.015242181325505
scalar tree_4_3_u07_r11_network.node[10].core_layer 	interests[10] 	44742
scalar tree_4_3_u07_r11_network.node[10].core_layer 	data[10] 	41394
scalar tree_4_3_u07_r11_network.node[10].content_store 	p_hit[10] 	0.07480666934871
scalar tree_4_3_u07_r11_network.node[10].content_store 	hits[10] 	3347
scalar tree_4_3_u07_r11_network.node[10].content_store 	misses[10] 	41395
scalar tree_4_3_u07_r11_network.node[10].content_store 	decision_yes[10] 	394
scalar tree_4_3_u07_r11_network.node[10].content_store 	decision_no[10] 	41000
scalar tree_4_3_u07_r11_network.node[10].content_store 	decision_ratio[10] 	0.0095182876745422
scalar tree_4_3_u07_r11_network.node[11].core_layer 	interests[11] 	20437
scalar tree_4_3_u07_r11_network.node[11].core_layer 	data[11] 	17352
scalar tree_4_3_u07_r11_network.node[11].content_store 	p_hit[11] 	0.1509027743798
scalar tree_4_3_u07_r11_network.node[11].content_store 	hits[11] 	3084
scalar tree_4_3_u07_r11_network.node[11].content_store 	misses[11] 	17353
scalar tree_4_3_u07_r11_network.node[11].content_store 	decision_yes[11] 	213
scalar tree_4_3_u07_r11_network.node[11].content_store 	decision_no[11] 	17139
scalar tree_4_3_u07_r11_network.node[11].content_store 	decision_ratio[11] 	0.012275242047026
scalar tree_4_3_u07_r11_network.node[12].core_layer 	interests[12] 	19580
scalar tree_4_3_u07_r11_network.node[12].core_layer 	data[12] 	17362
scalar tree_4_3_u07_r11_network.node[12].content_store 	p_hit[12] 	0.11327885597549
scalar tree_4_3_u07_r11_network.node[12].content_store 	hits[12] 	2218
scalar tree_4_3_u07_r11_network.node[12].content_store 	misses[12] 	17362
scalar tree_4_3_u07_r11_network.node[12].content_store 	decision_yes[12] 	255
scalar tree_4_3_u07_r11_network.node[12].content_store 	decision_no[12] 	17107
scalar tree_4_3_u07_r11_network.node[12].content_store 	decision_ratio[12] 	0.014687248012902
scalar tree_4_3_u07_r11_network.node[13].core_layer 	interests[13] 	12304
scalar tree_4_3_u07_r11_network.node[13].core_layer 	data[13] 	8616
scalar tree_4_3_u07_r11_network.node[13].content_store 	p_hit[13] 	0.29973992197659
scalar tree_4_3_u07_r11_network.node[13].content_store 	hits[13] 	3688
scalar tree_4_3_u07_r11_network.node[13].content_store 	misses[13] 	8616
scalar tree_4_3_u07_r11_network.node[13].content_store 	decision_yes[13] 	108
scalar tree_4_3_u07_r11_network.node[13].content_store 	decision_no[13] 	8508
scalar tree_4_3_u07_r11_network.node[13].content_store 	decision_ratio[13] 	0.012534818941504
scalar tree_4_3_u07_r11_network.node[14].core_layer 	interests[14] 	12781
scalar tree_4_3_u07_r11_network.node[14].core_layer 	data[14] 	9026
scalar tree_4_3_u07_r11_network.node[14].content_store 	p_hit[14] 	0.29379547766215
scalar tree_4_3_u07_r11_network.node[14].content_store 	hits[14] 	3755
scalar tree_4_3_u07_r11_network.node[14].content_store 	misses[14] 	9026
scalar tree_4_3_u07_r11_network.node[14].content_store 	decision_yes[14] 	121
scalar tree_4_3_u07_r11_network.node[14].content_store 	decision_no[14] 	8905
scalar tree_4_3_u07_r11_network.node[14].content_store 	decision_ratio[14] 	0.013405716818081
scalar tree_4_3_u07_r11_network.node[15].core_layer 	interests[15] 	13120
scalar tree_4_3_u07_r11_network.node[15].core_layer 	data[15] 	8819
scalar tree_4_3_u07_r11_network.node[15].content_store 	p_hit[15] 	0.32782012195122
scalar tree_4_3_u07_r11_network.node[15].content_store 	hits[15] 	4301
scalar tree_4_3_u07_r11_network.node[15].content_store 	misses[15] 	8819
scalar tree_4_3_u07_r11_network.node[15].content_store 	decision_yes[15] 	130
scalar tree_4_3_u07_r11_network.node[15].content_store 	decision_no[15] 	8689
scalar tree_4_3_u07_r11_network.node[15].content_store 	decision_ratio[15] 	0.014740900328835
scalar tree_4_3_u07_r11_network.node[16].core_layer 	interests[16] 	13014
scalar tree_4_3_u07_r11_network.node[16].core_layer 	data[16] 	8836
scalar tree_4_3_u07_r11_network.node[16].content_store 	p_hit[16] 	0.32103888120486
scalar tree_4_3_u07_r11_network.node[16].content_store 	hits[16] 	4178
scalar tree_4_3_u07_r11_network.node[16].content_store 	misses[16] 	8836
scalar tree_4_3_u07_r11_network.node[16].content_store 	decision_yes[16] 	111
scalar tree_4_3_u07_r11_network.node[16].content_store 	decision_no[16] 	8725
scalar tree_4_3_u07_r11_network.node[16].content_store 	decision_ratio[16] 	0.012562245359891
scalar tree_4_3_u07_r11_network.node[17].core_layer 	interests[17] 	12385
scalar tree_4_3_u07_r11_network.node[17].core_layer 	data[17] 	8744
scalar tree_4_3_u07_r11_network.node[17].content_store 	p_hit[17] 	0.29398465886153
scalar tree_4_3_u07_r11_network.node[17].content_store 	hits[17] 	3641
scalar tree_4_3_u07_r11_network.node[17].content_store 	misses[17] 	8744
scalar tree_4_3_u07_r11_network.node[17].content_store 	decision_yes[17] 	83
scalar tree_4_3_u07_r11_network.node[17].content_store 	decision_no[17] 	8661
scalar tree_4_3_u07_r11_network.node[17].content_store 	decision_ratio[17] 	0.0094922232387923
scalar tree_4_3_u07_r11_network.node[18].core_layer 	interests[18] 	12893
scalar tree_4_3_u07_r11_network.node[18].core_layer 	data[18] 	8710
scalar tree_4_3_u07_r11_network.node[18].content_store 	p_hit[18] 	0.32443961839758
scalar tree_4_3_u07_r11_network.node[18].content_store 	hits[18] 	4183
scalar tree_4_3_u07_r11_network.node[18].content_store 	misses[18] 	8710
scalar tree_4_3_u07_r11_network.node[18].content_store 	decision_yes[18] 	119
scalar tree_4_3_u07_r11_network.node[18].content_store 	decision_no[18] 	8591
scalar tree_4_3_u07_r11_network.node[18].content_store 	decision_ratio[18] 	0.013662456946039
scalar tree_4_3_u07_r11_network.node[19].core_layer 	interests[19] 	12537
scalar tree_4_3_u07_r11_network.node[19].core_layer 	data[19] 	8710
scalar tree_4_3_u07_r11_network.node[19].content_store 	p_hit[19] 	0.30525644093483
scalar tree_4_3_u07_r11_network.node[19].content_store 	hits[19] 	3827
scalar tree_4_3_u07_r11_network.node[19].content_store 	misses[19] 	8710
scalar tree_4_3_u07_r11_network.node[19].content_store 	decision_yes[19] 	103
scalar tree_4_3_u07_r11_network.node[19].content_store 	decision_no[19] 	8607
scalar tree_4_3_u07_r11_network.node[19].content_store 	decision_ratio[19] 	0.011825487944891
scalar tree_4_3_u07_r11_network.node[20].core_layer 	interests[20] 	12358
scalar tree_4_3_u07_r11_network.node[20].core_layer 	data[20] 	8704
scalar tree_4_3_u07_r11_network.node[20].content_store 	p_hit[20] 	0.29575983168798
scalar tree_4_3_u07_r11_network.node[20].content_store 	hits[20] 	3655
scalar tree_4_3_u07_r11_network.node[20].content_store 	misses[20] 	8703
scalar tree_4_3_u07_r11_network.node[20].content_store 	decision_yes[20] 	110
scalar tree_4_3_u07_r11_network.node[20].content_store 	decision_no[20] 	8594
scalar tree_4_3_u07_r11_network.node[20].content_store 	decision_ratio[20] 	0.012637867647059
scalar tree_4_3_u07_r11_network.node[21].core_layer 	interests[21] 	12764
scalar tree_4_3_u07_r11_network.node[21].core_layer 	data[21] 	8988
scalar tree_4_3_u07_r11_network.node[21].content_store 	p_hit[21] 	0.29583202757756
scalar tree_4_3_u07_r11_network.node[21].content_store 	hits[21] 	3776
scalar tree_4_3_u07_r11_network.node[21].content_store 	misses[21] 	8988
scalar tree_4_3_u07_r11_network.node[21].content_store 	decision_yes[21] 	102
scalar tree_4_3_u07_r11_network.node[21].content_store 	decision_no[21] 	8886
scalar tree_4_3_u07_r11_network.node[21].content_store 	decision_ratio[21] 	0.011348464619493
scalar tree_4_3_u07_r11_network.node[22].core_layer 	interests[22] 	12569
scalar tree_4_3_u07_r11_network.node[22].core_layer 	data[22] 	8895
scalar tree_4_3_u07_r11_network.node[22].content_store 	p_hit[22] 	0.29230646829501
scalar tree_4_3_u07_r11_network.node[22].content_store 	hits[22] 	3674
scalar tree_4_3_u07_r11_network.node[22].content_store 	misses[22] 	8895
scalar tree_4_3_u07_r11_network.node[22].content_store 	decision_yes[22] 	90
scalar tree_4_3_u07_r11_network.node[22].content_store 	decision_no[22] 	8805
scalar tree_4_3_u07_r11_network.node[22].content_store 	decision_ratio[22] 	0.010118043844857
scalar tree_4_3_u07_r11_network.node[23].core_layer 	interests[23] 	13097
scalar tree_4_3_u07_r11_network.node[23].core_layer 	data[23] 	8917
scalar tree_4_3_u07_r11_network.node[23].content_store 	p_hit[23] 	0.31915705886844
scalar tree_4_3_u07_r11_network.node[23].content_store 	hits[23] 	4180
scalar tree_4_3_u07_r11_network.node[23].content_store 	misses[23] 	8917
scalar tree_4_3_u07_r11_network.node[23].content_store 	decision_yes[23] 	112
scalar tree_4_3_u07_r11_network.node[23].content_store 	decision_no[23] 	8805
scalar tree_4_3_u07_r11_network.node[23].content_store 	decision_ratio[23] 	0.012560278120444
scalar tree_4_3_u07_r11_network.node[24].core_layer 	interests[24] 	13071
scalar tree_4_3_u07_r11_network.node[24].core_layer 	data[24] 	8967
scalar tree_4_3_u07_r11_network.node[24].content_store 	p_hit[24] 	0.31397750745926
scalar tree_4_3_u07_r11_network.node[24].content_store 	hits[24] 	4104
scalar tree_4_3_u07_r11_network.node[24].content_store 	misses[24] 	8967
scalar tree_4_3_u07_r11_network.node[24].content_store 	decision_yes[24] 	134
scalar tree_4_3_u07_r11_network.node[24].content_store 	decision_no[24] 	8833
scalar tree_4_3_u07_r11_network.node[24].content_store 	decision_ratio[24] 	0.014943682390989
scalar tree_4_3_u07_r11_network.node[25].core_layer 	interests[25] 	12905
scalar tree_4_3_u07_r11_network.node[25].core_layer 	data[25] 	8878
scalar tree_4_3_u07_r11_network.node[25].content_store 	p_hit[25] 	0.31204959318094
scalar tree_4_3_u07_r11_network.node[25].content_store 	hits[25] 	4027
scalar tree_4_3_u07_r11_network.node[25].content_store 	misses[25] 	8878
scalar tree_4_3_u07_r11_network.node[25].content_store 	decision_yes[25] 	109
scalar tree_4_3_u07_r11_network.node[25].content_store 	decision_no[25] 	8769
scalar tree_4_3_u07_r11_network.node[25].content_store 	decision_ratio[25] 	0.012277539986483
scalar tree_4_3_u07_r11_network.node[26].core_layer 	interests[26] 	12164
scalar tree_4_3_u07_r11_network.node[26].core_layer 	data[26] 	8659
scalar tree_4_3_u07_r11_network.node[26].content_store 	p_hit[26] 	0.28814534692535
scalar tree_4_3_u07_r11_network.node[26].content_store 	hits[26] 	3505
scalar tree_4_3_u07_r11_network.node[26].content_store 	misses[26] 	8659
scalar tree_4_3_u07_r11_network.node[26].content_store 	decision_yes[26] 	108
scalar tree_4_3_u07_r11_network.node[26].content_store 	decision_no[26] 	8551
scalar tree_4_3_u07_r11_network.node[26].content_store 	decision_ratio[26] 	0.012472571890519
scalar tree_4_3_u07_r11_network.node[27].core_layer 	interests[27] 	12424
scalar tree_4_3_u07_r11_network.node[27].core_layer 	data[27] 	8713
scalar tree_4_3_u07_r11_network.node[27].content_store 	p_hit[27] 	0.29869607211848
scalar tree_4_3_u07_r11_network.node[27].content_store 	hits[27] 	3711
scalar tree_4_3_u07_r11_network.node[27].content_store 	misses[27] 	8713
scalar tree_4_3_u07_r11_network.node[27].content_store 	decision_yes[27] 	89
scalar tree_4_3_u07_r11_network.node[27].content_store 	decision_no[27] 	8624
scalar tree_4_3_u07_r11_network.node[27].content_store 	decision_ratio[27] 	0.01021462182945
scalar tree_4_3_u07_r11_network.node[28].core_layer 	interests[28] 	13351
scalar tree_4_3_u07_r11_network.node[28].core_layer 	data[28] 	9105
scalar tree_4_3_u07_r11_network.node[28].content_store 	p_hit[28] 	0.31787881057599
scalar tree_4_3_u07_r11_network.node[28].content_store 	hits[28] 	4244
scalar tree_4_3_u07_r11_network.node[28].content_store 	misses[28] 	9107
scalar tree_4_3_u07_r11_network.node[28].content_store 	decision_yes[28] 	122
scalar tree_4_3_u07_r11_network.node[28].content_store 	decision_no[28] 	8983
scalar tree_4_3_u07_r11_network.node[28].content_store 	decision_ratio[28] 	0.013399231191653
scalar tree_4_3_u07_r11_network.node[29].core_layer 	interests[29] 	12460
scalar tree_4_3_u07_r11_network.node[29].core_layer 	data[29] 	8752
scalar tree_4_3_u07_r11_network.node[29].content_store 	p_hit[29] 	0.2975922953451
scalar tree_4_3_u07_r11_network.node[29].content_store 	hits[29] 	3708
scalar tree_4_3_u07_r11_network.node[29].content_store 	misses[29] 	8752
scalar tree_4_3_u07_r11_network.node[29].content_store 	decision_yes[29] 	116
scalar tree_4_3_u07_r11_network.node[29].content_store 	decision_no[29] 	8636
scalar tree_4_3_u07_r11_network.node[29].content_store 	decision_ratio[29] 	0.013254113345521
scalar tree_4_3_u07_r11_network.node[30].core_layer 	interests[30] 	12311
scalar tree_4_3_u07_r11_network.node[30].core_layer 	data[30] 	8575
scalar tree_4_3_u07_r11_network.node[30].content_store 	p_hit[30] 	0.30346844285598
scalar tree_4_3_u07_r11_network.node[30].content_store 	hits[30] 	3736
scalar tree_4_3_u07_r11_network.node[30].content_store 	misses[30] 	8575
scalar tree_4_3_u07_r11_network.node[30].content_store 	decision_yes[30] 	94
scalar tree_4_3_u07_r11_network.node[30].content_store 	decision_no[30] 	8481
scalar tree_4_3_u07_r11_network.node[30].content_store 	decision_ratio[30] 	0.010962099125364
scalar tree_4_3_u07_r11_network.node[31].core_layer 	interests[31] 	12613
scalar tree_4_3_u07_r11_network.node[31].core_layer 	data[31] 	8838
scalar tree_4_3_u07_r11_network.node[31].content_store 	p_hit[31] 	0.29921509553635
scalar tree_4_3_u07_r11_network.node[31].content_store 	hits[31] 	3774
scalar tree_4_3_u07_r11_network.node[31].content_store 	misses[31] 	8839
scalar tree_4_3_u07_r11_network.node[31].content_store 	decision_yes[31] 	112
scalar tree_4_3_u07_r11_network.node[31].content_store 	decision_no[31] 	8726
scalar tree_4_3_u07_r11_network.node[31].content_store 	decision_ratio[31] 	0.012672550350758
scalar tree_4_3_u07_r11_network.node[32].core_layer 	interests[32] 	12905
scalar tree_4_3_u07_r11_network.node[32].core_layer 	data[32] 	8851
scalar tree_4_3_u07_r11_network.node[32].content_store 	p_hit[32] 	0.31414180550174
scalar tree_4_3_u07_r11_network.node[32].content_store 	hits[32] 	4054
scalar tree_4_3_u07_r11_network.node[32].content_store 	misses[32] 	8851
scalar tree_4_3_u07_r11_network.node[32].content_store 	decision_yes[32] 	143
scalar tree_4_3_u07_r11_network.node[32].content_store 	decision_no[32] 	8708
scalar tree_4_3_u07_r11_network.node[32].content_store 	decision_ratio[32] 	0.016156366512259
scalar tree_4_3_u07_r11_network.node[33].core_layer 	interests[33] 	12606
scalar tree_4_3_u07_r11_network.node[33].core_layer 	data[33] 	8751
scalar tree_4_3_u07_r11_network.node[33].content_store 	p_hit[33] 	0.30580675868634
scalar tree_4_3_u07_r11_network.node[33].content_store 	hits[33] 	3855
scalar tree_4_3_u07_r11_network.node[33].content_store 	misses[33] 	8751
scalar tree_4_3_u07_r11_network.node[33].content_store 	decision_yes[33] 	101
scalar tree_4_3_u07_r11_network.node[33].content_store 	decision_no[33] 	8650
scalar tree_4_3_u07_r11_network.node[33].content_store 	decision_ratio[33] 	0.01154153810993
scalar tree_4_3_u07_r11_network.node[34].core_layer 	interests[34] 	13075
scalar tree_4_3_u07_r11_network.node[34].core_layer 	data[34] 	8946
scalar tree_4_3_u07_r11_network.node[34].content_store 	p_hit[34] 	0.31579349904398
scalar tree_4_3_u07_r11_network.node[34].content_store 	hits[34] 	4129
scalar tree_4_3_u07_r11_network.node[34].content_store 	misses[34] 	8946
scalar tree_4_3_u07_r11_network.node[34].content_store 	decision_yes[34] 	110
scalar tree_4_3_u07_r11_network.node[34].content_store 	decision_no[34] 	8836
scalar tree_4_3_u07_r11_network.node[34].content_store 	decision_ratio[34] 	0.012295998211491
scalar tree_4_3_u07_r11_network.node[35].core_layer 	interests[35] 	12272
scalar tree_4_3_u07_r11_network.node[35].core_layer 	data[35] 	8666
scalar tree_4_3_u07_r11_network.node[35].content_store 	p_hit[35] 	0.29383963494133
scalar tree_4_3_u07_r11_network.node[35].content_store 	hits[35] 	3606
scalar tree_4_3_u07_r11_network.node[35].content_store 	misses[35] 	8666
scalar tree_4_3_u07_r11_network.node[35].content_store 	decision_yes[35] 	91
scalar tree_4_3_u07_r11_network.node[35].content_store 	decision_no[35] 	8575
scalar tree_4_3_u07_r11_network.node[35].content_store 	decision_ratio[35] 	0.010500807754443
scalar tree_4_3_u07_r11_network.node[36].core_layer 	interests[36] 	12984
scalar tree_4_3_u07_r11_network.node[36].core_layer 	data[36] 	8895
scalar tree_4_3_u07_r11_network.node[36].content_store 	p_hit[36] 	0.31492606284658
scalar tree_4_3_u07_r11_network.node[36].content_store 	hits[36] 	4089
scalar tree_4_3_u07_r11_network.node[36].content_store 	misses[36] 	8895
scalar tree_4_3_u07_r11_network.node[36].content_store 	decision_yes[36] 	125
scalar tree_4_3_u07_r11_network.node[36].content_store 	decision_no[36] 	8770
scalar tree_4_3_u07_r11_network.node[36].content_store 	decision_ratio[36] 	0.014052838673412
scalar tree_4_3_u07_r11_network.node[37].core_layer 	interests[37] 	13031
scalar tree_4_3_u07_r11_network.node[37].core_layer 	data[37] 	8898
scalar tree_4_3_u07_r11_network.node[37].content_store 	p_hit[37] 	0.31716675619676
scalar tree_4_3_u07_r11_network.node[37].content_store 	hits[37] 	4133
scalar tree_4_3_u07_r11_network.node[37].content_store 	misses[37] 	8898
scalar tree_4_3_u07_r11_network.node[37].content_store 	decision_yes[37] 	141
scalar tree_4_3_u07_r11_network.node[37].content_store 	decision_no[37] 	8757
scalar tree_4_3_u07_r11_network.node[37].content_store 	decision_ratio[37] 	0.015846257585974
scalar tree_4_3_u07_r11_network.node[38].core_layer 	interests[38] 	12453
scalar tree_4_3_u07_r11_network.node[38].core_layer 	data[38] 	8915
scalar tree_4_3_u07_r11_network.node[38].content_store 	p_hit[38] 	0.28410824700875
scalar tree_4_3_u07_r11_network.node[38].content_store 	hits[38] 	3538
scalar tree_4_3_u07_r11_network.node[38].content_store 	misses[38] 	8915
scalar tree_4_3_u07_r11_network.node[38].content_store 	decision_yes[38] 	135
scalar tree_4_3_u07_r11_network.node[38].content_store 	decision_no[38] 	8780
scalar tree_4_3_u07_r11_network.node[38].content_store 	decision_ratio[38] 	0.015143017386427
scalar tree_4_3_u07_r11_network.node[39].core_layer 	interests[39] 	12418
scalar tree_4_3_u07_r11_network.node[39].core_layer 	data[39] 	8730
scalar tree_4_3_u07_r11_network.node[39].content_store 	p_hit[39] 	0.29698824287325
scalar tree_4_3_u07_r11_network.node[39].content_store 	hits[39] 	3688
scalar tree_4_3_u07_r11_network.node[39].content_store 	misses[39] 	8730
scalar tree_4_3_u07_r11_network.node[39].content_store 	decision_yes[39] 	137
scalar tree_4_3_u07_r11_network.node[39].content_store 	decision_no[39] 	8593
scalar tree_4_3_u07_r11_network.node[39].content_store 	decision_ratio[39] 	0.015693012600229
scalar tree_4_3_u07_r11_network.client[13] 	hdistance[13] 	2.6320094443039
scalar tree_4_3_u07_r11_network.client[13] 	downloads[13] 	11859
scalar tree_4_3_u07_r11_network.client[13] 	avg_time[13] 	0.004138288623
scalar tree_4_3_u07_r11_network.client[14] 	hdistance[14] 	2.676091916558
scalar tree_4_3_u07_r11_network.client[14] 	downloads[14] 	12272
scalar tree_4_3_u07_r11_network.client[14] 	avg_time[14] 	0.004213165133
scalar tree_4_3_u07_r11_network.client[15] 	hdistance[15] 	2.6125095347063
scalar tree_4_3_u07_r11_network.client[15] 	downloads[15] 	11799
scalar tree_4_3_u07_r11_network.client[15] 	avg_time[15] 	0.004109344075
scalar tree_4_3_u07_r11_network.client[16] 	hdistance[16] 	2.5875434818618
scalar tree_4_3_u07_r11_network.client[16] 	downloads[16] 	12074
scalar tree_4_3_u07_r11_network.client[16] 	avg_time[16] 	0.004071406222
scalar tree_4_3_u07_r11_network.client[17] 	hdistance[17] 	2.6224760013241
scalar tree_4_3_u07_r11_network.client[17] 	downloads[17] 	12084
scalar tree_4_3_u07_r11_network.client[17] 	avg_time[17] 	0.004149616295
scalar tree_4_3_u07_r11_network.client[18] 	hdistance[18] 	2.5570611008248
scalar tree_4_3_u07_r11_network.client[18] 	downloads[18] 	11882
scalar tree_4_3_u07_r11_network.client[18] 	avg_time[18] 	0.004024268065
scalar tree_4_3_u07_r11_network.client[19] 	hdistance[19] 	2.5988294314381
scalar tree_4_3_u07_r11_network.client[19] 	downloads[19] 	11960
scalar tree_4_3_u07_r11_network.client[19] 	avg_time[19] 	0.004095816441
scalar tree_4_3_u07_r11_network.client[20] 	hdistance[20] 	2.6462376574736
scalar tree_4_3_u07_r11_network.client[20] 	downloads[20] 	11748
scalar tree_4_3_u07_r11_network.client[20] 	avg_time[20] 	0.004172962691
scalar tree_4_3_u07_r11_network.client[21] 	hdistance[21] 	2.6529804600544
scalar tree_4_3_u07_r11_network.client[21] 	downloads[21] 	12129
scalar tree_4_3_u07_r11_network.client[21] 	avg_time[21] 	0.004184678327
scalar tree_4_3_u07_r11_network.client[22] 	hdistance[22] 	2.6609238451935
scalar tree_4_3_u07_r11_network.client[22] 	downloads[22] 	12015
scalar tree_4_3_u07_r11_network.client[22] 	avg_time[22] 	0.004191752873
scalar tree_4_3_u07_r11_network.client[23] 	hdistance[23] 	2.6023905048479
scalar tree_4_3_u07_r11_network.client[23] 	downloads[23] 	11964
scalar tree_4_3_u07_r11_network.client[23] 	avg_time[23] 	0.004098459051
scalar tree_4_3_u07_r11_network.client[24] 	hdistance[24] 	2.5805862326663
scalar tree_4_3_u07_r11_network.client[24] 	downloads[24] 	12043
scalar tree_4_3_u07_r11_network.client[24] 	avg_time[24] 	0.004063270257
scalar tree_4_3_u07_r11_network.client[25] 	hdistance[25] 	2.6128706199461
scalar tree_4_3_u07_r11_network.client[25] 	downloads[25] 	11872
scalar tree_4_3_u07_r11_network.client[25] 	avg_time[25] 	0.004111856839
scalar tree_4_3_u07_r11_network.client[26] 	hdistance[26] 	2.6559103547055
scalar tree_4_3_u07_r11_network.client[26] 	downloads[26] 	11869
scalar tree_4_3_u07_r11_network.client[26] 	avg_time[26] 	0.004157381819
scalar tree_4_3_u07_r11_network.client[27] 	hdistance[27] 	2.6425429496224
scalar tree_4_3_u07_r11_network.client[27] 	downloads[27] 	12049
scalar tree_4_3_u07_r11_network.client[27] 	avg_time[27] 	0.00413328607
scalar tree_4_3_u07_r11_network.client[28] 	hdistance[28] 	2.581988590057
scalar tree_4_3_u07_r11_network.client[28] 	downloads[28] 	12270
scalar tree_4_3_u07_r11_network.client[28] 	avg_time[28] 	0.004064870624
scalar tree_4_3_u07_r11_network.client[29] 	hdistance[29] 	2.6196364843555
scalar tree_4_3_u07_r11_network.client[29] 	downloads[29] 	12049
scalar tree_4_3_u07_r11_network.client[29] 	avg_time[29] 	0.004128865636
scalar tree_4_3_u07_r11_network.client[30] 	hdistance[30] 	2.6006395153147
scalar tree_4_3_u07_r11_network.client[30] 	downloads[30] 	11884
scalar tree_4_3_u07_r11_network.client[30] 	avg_time[30] 	0.004100843301
scalar tree_4_3_u07_r11_network.client[31] 	hdistance[31] 	2.635946239252
scalar tree_4_3_u07_r11_network.client[31] 	downloads[31] 	11979
scalar tree_4_3_u07_r11_network.client[31] 	avg_time[31] 	0.004162447923
scalar tree_4_3_u07_r11_network.client[32] 	hdistance[32] 	2.5886234547277
scalar tree_4_3_u07_r11_network.client[32] 	downloads[32] 	11972
scalar tree_4_3_u07_r11_network.client[32] 	avg_time[32] 	0.00407417006
scalar tree_4_3_u07_r11_network.client[33] 	hdistance[33] 	2.6170035075998
scalar tree_4_3_u07_r11_network.client[33] 	downloads[33] 	11974
scalar tree_4_3_u07_r11_network.client[33] 	avg_time[33] 	0.00412760682
scalar tree_4_3_u07_r11_network.client[34] 	hdistance[34] 	2.592928452579
scalar tree_4_3_u07_r11_network.client[34] 	downloads[34] 	12020
scalar tree_4_3_u07_r11_network.client[34] 	avg_time[34] 	0.004080030273
scalar tree_4_3_u07_r11_network.client[35] 	hdistance[35] 	2.6194660641058
scalar tree_4_3_u07_r11_network.client[35] 	downloads[35] 	11949
scalar tree_4_3_u07_r11_network.client[35] 	avg_time[35] 	0.004124693648
scalar tree_4_3_u07_r11_network.client[36] 	hdistance[36] 	2.5692345597897
scalar tree_4_3_u07_r11_network.client[36] 	downloads[36] 	12176
scalar tree_4_3_u07_r11_network.client[36] 	avg_time[36] 	0.004036995623
scalar tree_4_3_u07_r11_network.client[37] 	hdistance[37] 	2.6038538538538
scalar tree_4_3_u07_r11_network.client[37] 	downloads[37] 	11988
scalar tree_4_3_u07_r11_network.client[37] 	avg_time[37] 	0.004089086088
scalar tree_4_3_u07_r11_network.client[38] 	hdistance[38] 	2.6697012331375
scalar tree_4_3_u07_r11_network.client[38] 	downloads[38] 	12083
scalar tree_4_3_u07_r11_network.client[38] 	avg_time[38] 	0.00418769869
scalar tree_4_3_u07_r11_network.client[39] 	hdistance[39] 	2.6427736982644
scalar tree_4_3_u07_r11_network.client[39] 	downloads[39] 	11984
scalar tree_4_3_u07_r11_network.client[39] 	avg_time[39] 	0.004140851467
