version 2
run General-444-20160901-09:21:54-8710
attr a 0.9
attr cd ffc
attr configname General
attr cr lru
attr datetime 20160901-09:21:54
attr experiment General
attr fsize 1
attr inifile hw5115/scenario_Y/omnetp.ini
attr iterationvars "$name=tree_4_3, $un=07, $rep=9, $cd=ffc, $cr=lru, $fsize=1, $a=0.9, $sl=nrr, $ttl=1000, $variance=0.05"
attr iterationvars2 "$name=tree_4_3, $un=07, $rep=9, $cd=ffc, $cr=lru, $fsize=1, $a=0.9, $sl=nrr, $ttl=1000, $variance=0.05, $repetition=0"
attr measurement "$name=tree_4_3, $un=07, $rep=9, $cd=ffc, $cr=lru, $fsize=1, $a=0.9, $sl=nrr, $ttl=1000, $variance=0.05"
attr name tree_4_3
attr network networks.${name}_u${un}_r${rep}_network
attr processid 8710
attr rep 9
attr repetition 0
attr replication #0
attr resultdir results
attr runnumber 444
attr seedset 9
attr sl nrr
attr ttl 1000
attr un 07
attr variance 0.05

scalar . 	a 	0.9
scalar . 	fsize 	1
scalar . 	rep 	9
scalar . 	ttl 	1000
scalar . 	un 	07
scalar . 	variance 	0.05
scalar tree_4_3_u07_r9_network.content_distribution 	repo-0 	0
scalar tree_4_3_u07_r9_network.content_distribution 	client-0 	13
scalar tree_4_3_u07_r9_network.content_distribution 	client-1 	14
scalar tree_4_3_u07_r9_network.content_distribution 	client-2 	15
scalar tree_4_3_u07_r9_network.content_distribution 	client-3 	16
scalar tree_4_3_u07_r9_network.content_distribution 	client-4 	17
scalar tree_4_3_u07_r9_network.content_distribution 	client-5 	18
scalar tree_4_3_u07_r9_network.content_distribution 	client-6 	19
scalar tree_4_3_u07_r9_network.content_distribution 	client-7 	20
scalar tree_4_3_u07_r9_network.content_distribution 	client-8 	21
scalar tree_4_3_u07_r9_network.content_distribution 	client-9 	22
scalar tree_4_3_u07_r9_network.content_distribution 	client-10 	23
scalar tree_4_3_u07_r9_network.content_distribution 	client-11 	24
scalar tree_4_3_u07_r9_network.content_distribution 	client-12 	25
scalar tree_4_3_u07_r9_network.content_distribution 	client-13 	26
scalar tree_4_3_u07_r9_network.content_distribution 	client-14 	27
scalar tree_4_3_u07_r9_network.content_distribution 	client-15 	28
scalar tree_4_3_u07_r9_network.content_distribution 	client-16 	29
scalar tree_4_3_u07_r9_network.content_distribution 	client-17 	30
scalar tree_4_3_u07_r9_network.content_distribution 	client-18 	31
scalar tree_4_3_u07_r9_network.content_distribution 	client-19 	32
scalar tree_4_3_u07_r9_network.content_distribution 	client-20 	33
scalar tree_4_3_u07_r9_network.content_distribution 	client-21 	34
scalar tree_4_3_u07_r9_network.content_distribution 	client-22 	35
scalar tree_4_3_u07_r9_network.content_distribution 	client-23 	36
scalar tree_4_3_u07_r9_network.content_distribution 	client-24 	37
scalar tree_4_3_u07_r9_network.content_distribution 	client-25 	38
scalar tree_4_3_u07_r9_network.content_distribution 	client-26 	39
scalar tree_4_3_u07_r9_network.content_distribution 	repo-0_card 	100000
scalar tree_4_3_u07_r9_network.content_distribution 	repo-0_price 	0
scalar tree_4_3_u07_r9_network.statistics 	stabilization_time 	1157.9
scalar tree_4_3_u07_r9_network.statistics 	p_hit 	0.23545628148276
scalar tree_4_3_u07_r9_network.statistics 	interests 	24703.325
scalar tree_4_3_u07_r9_network.statistics 	data 	16614.525
scalar tree_4_3_u07_r9_network.statistics 	hdistance 	2.623382277824
scalar tree_4_3_u07_r9_network.statistics 	avg_time 	0.004108178162
scalar tree_4_3_u07_r9_network.statistics 	downloads 	323544
scalar tree_4_3_u07_r9_network.statistics 	total_cost 	0
scalar tree_4_3_u07_r9_network.statistics 	total_replicas 	100000
scalar tree_4_3_u07_r9_network.statistics 	inner_hit 	0.43073894122592
scalar tree_4_3_u07_r9_network.node[0].core_layer 	interests[0] 	186824
scalar tree_4_3_u07_r9_network.node[0].core_layer 	repo_load[0] 	184181
scalar tree_4_3_u07_r9_network.node[0].core_layer 	data[0] 	0
scalar tree_4_3_u07_r9_network.node[0].core_layer 	repo_int[0] 	184181
scalar tree_4_3_u07_r9_network.node[0].content_store 	p_hit[0] 	0.014147004667495
scalar tree_4_3_u07_r9_network.node[0].content_store 	hits[0] 	2643
scalar tree_4_3_u07_r9_network.node[0].content_store 	misses[0] 	184181
scalar tree_4_3_u07_r9_network.node[0].content_store 	decision_yes[0] 	820
scalar tree_4_3_u07_r9_network.node[0].content_store 	decision_no[0] 	183361
scalar tree_4_3_u07_r9_network.node[0].content_store 	decision_ratio[0] 	0.004452142186219
scalar tree_4_3_u07_r9_network.node[1].core_layer 	interests[1] 	64532
scalar tree_4_3_u07_r9_network.node[1].core_layer 	data[1] 	63336
scalar tree_4_3_u07_r9_network.node[1].content_store 	p_hit[1] 	0.01853344077357
scalar tree_4_3_u07_r9_network.node[1].content_store 	hits[1] 	1196
scalar tree_4_3_u07_r9_network.node[1].content_store 	misses[1] 	63336
scalar tree_4_3_u07_r9_network.node[1].content_store 	decision_yes[1] 	284
scalar tree_4_3_u07_r9_network.node[1].content_store 	decision_no[1] 	63052
scalar tree_4_3_u07_r9_network.node[1].content_store 	decision_ratio[1] 	0.004484021725401
scalar tree_4_3_u07_r9_network.node[2].core_layer 	interests[2] 	68831
scalar tree_4_3_u07_r9_network.node[2].core_layer 	data[2] 	66727
scalar tree_4_3_u07_r9_network.node[2].content_store 	p_hit[2] 	0.030567622146998
scalar tree_4_3_u07_r9_network.node[2].content_store 	hits[2] 	2104
scalar tree_4_3_u07_r9_network.node[2].content_store 	misses[2] 	66727
scalar tree_4_3_u07_r9_network.node[2].content_store 	decision_yes[2] 	346
scalar tree_4_3_u07_r9_network.node[2].content_store 	decision_no[2] 	66381
scalar tree_4_3_u07_r9_network.node[2].content_store 	decision_ratio[2] 	0.0051853072968963
scalar tree_4_3_u07_r9_network.node[3].core_layer 	interests[3] 	73949
scalar tree_4_3_u07_r9_network.node[3].core_layer 	data[3] 	70608
scalar tree_4_3_u07_r9_network.node[3].content_store 	p_hit[3] 	0.045166263235473
scalar tree_4_3_u07_r9_network.node[3].content_store 	hits[3] 	3340
scalar tree_4_3_u07_r9_network.node[3].content_store 	misses[3] 	70609
scalar tree_4_3_u07_r9_network.node[3].content_store 	decision_yes[3] 	574
scalar tree_4_3_u07_r9_network.node[3].content_store 	decision_no[3] 	70034
scalar tree_4_3_u07_r9_network.node[3].content_store 	decision_ratio[3] 	0.0081293904373442
scalar tree_4_3_u07_r9_network.node[4].core_layer 	interests[4] 	40299
scalar tree_4_3_u07_r9_network.node[4].core_layer 	data[4] 	37999
scalar tree_4_3_u07_r9_network.node[4].content_store 	p_hit[4] 	0.057073376510583
scalar tree_4_3_u07_r9_network.node[4].content_store 	hits[4] 	2300
scalar tree_4_3_u07_r9_network.node[4].content_store 	misses[4] 	37999
scalar tree_4_3_u07_r9_network.node[4].content_store 	decision_yes[4] 	254
scalar tree_4_3_u07_r9_network.node[4].content_store 	decision_no[4] 	37745
scalar tree_4_3_u07_r9_network.node[4].content_store 	decision_ratio[4] 	0.0066843864312219
scalar tree_4_3_u07_r9_network.node[5].core_layer 	interests[5] 	20288
scalar tree_4_3_u07_r9_network.node[5].core_layer 	data[5] 	17553
scalar tree_4_3_u07_r9_network.node[5].content_store 	p_hit[5] 	0.1347594637224
scalar tree_4_3_u07_r9_network.node[5].content_store 	hits[5] 	2734
scalar tree_4_3_u07_r9_network.node[5].content_store 	misses[5] 	17554
scalar tree_4_3_u07_r9_network.node[5].content_store 	decision_yes[5] 	274
scalar tree_4_3_u07_r9_network.node[5].content_store 	decision_no[5] 	17279
scalar tree_4_3_u07_r9_network.node[5].content_store 	decision_ratio[5] 	0.015609867259158
scalar tree_4_3_u07_r9_network.node[6].core_layer 	interests[6] 	23449
scalar tree_4_3_u07_r9_network.node[6].core_layer 	data[6] 	19918
scalar tree_4_3_u07_r9_network.node[6].content_store 	p_hit[6] 	0.15058211437588
scalar tree_4_3_u07_r9_network.node[6].content_store 	hits[6] 	3531
scalar tree_4_3_u07_r9_network.node[6].content_store 	misses[6] 	19918
scalar tree_4_3_u07_r9_network.node[6].content_store 	decision_yes[6] 	387
scalar tree_4_3_u07_r9_network.node[6].content_store 	decision_no[6] 	19531
scalar tree_4_3_u07_r9_network.node[6].content_store 	decision_ratio[6] 	0.019429661612612
scalar tree_4_3_u07_r9_network.node[7].core_layer 	interests[7] 	25449
scalar tree_4_3_u07_r9_network.node[7].core_layer 	data[7] 	23661
scalar tree_4_3_u07_r9_network.node[7].content_store 	p_hit[7] 	0.070218869110771
scalar tree_4_3_u07_r9_network.node[7].content_store 	hits[7] 	1787
scalar tree_4_3_u07_r9_network.node[7].content_store 	misses[7] 	23662
scalar tree_4_3_u07_r9_network.node[7].content_store 	decision_yes[7] 	172
scalar tree_4_3_u07_r9_network.node[7].content_store 	decision_no[7] 	23489
scalar tree_4_3_u07_r9_network.node[7].content_store 	decision_ratio[7] 	0.0072693461814801
scalar tree_4_3_u07_r9_network.node[8].core_layer 	interests[8] 	35013
scalar tree_4_3_u07_r9_network.node[8].core_layer 	data[8] 	32225
scalar tree_4_3_u07_r9_network.node[8].content_store 	p_hit[8] 	0.079627566903721
scalar tree_4_3_u07_r9_network.node[8].content_store 	hits[8] 	2788
scalar tree_4_3_u07_r9_network.node[8].content_store 	misses[8] 	32225
scalar tree_4_3_u07_r9_network.node[8].content_store 	decision_yes[8] 	275
scalar tree_4_3_u07_r9_network.node[8].content_store 	decision_no[8] 	31950
scalar tree_4_3_u07_r9_network.node[8].content_store 	decision_ratio[8] 	0.008533747090768
scalar tree_4_3_u07_r9_network.node[9].core_layer 	interests[9] 	24073
scalar tree_4_3_u07_r9_network.node[9].core_layer 	data[9] 	20122
scalar tree_4_3_u07_r9_network.node[9].content_store 	p_hit[9] 	0.16408424375857
scalar tree_4_3_u07_r9_network.node[9].content_store 	hits[9] 	3950
scalar tree_4_3_u07_r9_network.node[9].content_store 	misses[9] 	20123
scalar tree_4_3_u07_r9_network.node[9].content_store 	decision_yes[9] 	429
scalar tree_4_3_u07_r9_network.node[9].content_store 	decision_no[9] 	19693
scalar tree_4_3_u07_r9_network.node[9].content_store 	decision_ratio[9] 	0.021319948315277
scalar tree_4_3_u07_r9_network.node[10].core_layer 	interests[10] 	43064
scalar tree_4_3_u07_r9_network.node[10].core_layer 	data[10] 	40460
scalar tree_4_3_u07_r9_network.node[10].content_store 	p_hit[10] 	0.060444919190043
scalar tree_4_3_u07_r9_network.node[10].content_store 	hits[10] 	2603
scalar tree_4_3_u07_r9_network.node[10].content_store 	misses[10] 	40461
scalar tree_4_3_u07_r9_network.node[10].content_store 	decision_yes[10] 	383
scalar tree_4_3_u07_r9_network.node[10].content_store 	decision_no[10] 	40077
scalar tree_4_3_u07_r9_network.node[10].content_store 	decision_ratio[10] 	0.0094661393969352
scalar tree_4_3_u07_r9_network.node[11].core_layer 	interests[11] 	28286
scalar tree_4_3_u07_r9_network.node[11].core_layer 	data[11] 	25496
scalar tree_4_3_u07_r9_network.node[11].content_store 	p_hit[11] 	0.098635367319522
scalar tree_4_3_u07_r9_network.node[11].content_store 	hits[11] 	2790
scalar tree_4_3_u07_r9_network.node[11].content_store 	misses[11] 	25496
scalar tree_4_3_u07_r9_network.node[11].content_store 	decision_yes[11] 	310
scalar tree_4_3_u07_r9_network.node[11].content_store 	decision_no[11] 	25186
scalar tree_4_3_u07_r9_network.node[11].content_store 	decision_ratio[11] 	0.012158770003138
scalar tree_4_3_u07_r9_network.node[12].core_layer 	interests[12] 	11544
scalar tree_4_3_u07_r9_network.node[12].core_layer 	data[12] 	8858
scalar tree_4_3_u07_r9_network.node[12].content_store 	p_hit[12] 	0.23267498267498
scalar tree_4_3_u07_r9_network.node[12].content_store 	hits[12] 	2686
scalar tree_4_3_u07_r9_network.node[12].content_store 	misses[12] 	8858
scalar tree_4_3_u07_r9_network.node[12].content_store 	decision_yes[12] 	149
scalar tree_4_3_u07_r9_network.node[12].content_store 	decision_no[12] 	8709
scalar tree_4_3_u07_r9_network.node[12].content_store 	decision_ratio[12] 	0.016820952811018
scalar tree_4_3_u07_r9_network.node[13].core_layer 	interests[13] 	12522
scalar tree_4_3_u07_r9_network.node[13].core_layer 	data[13] 	8826
scalar tree_4_3_u07_r9_network.node[13].content_store 	p_hit[13] 	0.29516051748922
scalar tree_4_3_u07_r9_network.node[13].content_store 	hits[13] 	3696
scalar tree_4_3_u07_r9_network.node[13].content_store 	misses[13] 	8826
scalar tree_4_3_u07_r9_network.node[13].content_store 	decision_yes[13] 	110
scalar tree_4_3_u07_r9_network.node[13].content_store 	decision_no[13] 	8716
scalar tree_4_3_u07_r9_network.node[13].content_store 	decision_ratio[13] 	0.012463176977113
scalar tree_4_3_u07_r9_network.node[14].core_layer 	interests[14] 	12799
scalar tree_4_3_u07_r9_network.node[14].core_layer 	data[14] 	8805
scalar tree_4_3_u07_r9_network.node[14].content_store 	p_hit[14] 	0.31205562934604
scalar tree_4_3_u07_r9_network.node[14].content_store 	hits[14] 	3994
scalar tree_4_3_u07_r9_network.node[14].content_store 	misses[14] 	8805
scalar tree_4_3_u07_r9_network.node[14].content_store 	decision_yes[14] 	105
scalar tree_4_3_u07_r9_network.node[14].content_store 	decision_no[14] 	8700
scalar tree_4_3_u07_r9_network.node[14].content_store 	decision_ratio[14] 	0.011925042589438
scalar tree_4_3_u07_r9_network.node[15].core_layer 	interests[15] 	12926
scalar tree_4_3_u07_r9_network.node[15].core_layer 	data[15] 	8910
scalar tree_4_3_u07_r9_network.node[15].content_store 	p_hit[15] 	0.31069162927433
scalar tree_4_3_u07_r9_network.node[15].content_store 	hits[15] 	4016
scalar tree_4_3_u07_r9_network.node[15].content_store 	misses[15] 	8910
scalar tree_4_3_u07_r9_network.node[15].content_store 	decision_yes[15] 	130
scalar tree_4_3_u07_r9_network.node[15].content_store 	decision_no[15] 	8780
scalar tree_4_3_u07_r9_network.node[15].content_store 	decision_ratio[15] 	0.014590347923681
scalar tree_4_3_u07_r9_network.node[16].core_layer 	interests[16] 	12796
scalar tree_4_3_u07_r9_network.node[16].core_layer 	data[16] 	8787
scalar tree_4_3_u07_r9_network.node[16].content_store 	p_hit[16] 	0.31330103157237
scalar tree_4_3_u07_r9_network.node[16].content_store 	hits[16] 	4009
scalar tree_4_3_u07_r9_network.node[16].content_store 	misses[16] 	8787
scalar tree_4_3_u07_r9_network.node[16].content_store 	decision_yes[16] 	109
scalar tree_4_3_u07_r9_network.node[16].content_store 	decision_no[16] 	8678
scalar tree_4_3_u07_r9_network.node[16].content_store 	decision_ratio[16] 	0.012404688744737
scalar tree_4_3_u07_r9_network.node[17].core_layer 	interests[17] 	12321
scalar tree_4_3_u07_r9_network.node[17].core_layer 	data[17] 	8810
scalar tree_4_3_u07_r9_network.node[17].content_store 	p_hit[17] 	0.28496063631199
scalar tree_4_3_u07_r9_network.node[17].content_store 	hits[17] 	3511
scalar tree_4_3_u07_r9_network.node[17].content_store 	misses[17] 	8810
scalar tree_4_3_u07_r9_network.node[17].content_store 	decision_yes[17] 	112
scalar tree_4_3_u07_r9_network.node[17].content_store 	decision_no[17] 	8698
scalar tree_4_3_u07_r9_network.node[17].content_store 	decision_ratio[17] 	0.012712826333712
scalar tree_4_3_u07_r9_network.node[18].core_layer 	interests[18] 	13071
scalar tree_4_3_u07_r9_network.node[18].core_layer 	data[18] 	8798
scalar tree_4_3_u07_r9_network.node[18].content_store 	p_hit[18] 	0.32690689312218
scalar tree_4_3_u07_r9_network.node[18].content_store 	hits[18] 	4273
scalar tree_4_3_u07_r9_network.node[18].content_store 	misses[18] 	8798
scalar tree_4_3_u07_r9_network.node[18].content_store 	decision_yes[18] 	116
scalar tree_4_3_u07_r9_network.node[18].content_store 	decision_no[18] 	8682
scalar tree_4_3_u07_r9_network.node[18].content_store 	decision_ratio[18] 	0.013184814730621
scalar tree_4_3_u07_r9_network.node[19].core_layer 	interests[19] 	12721
scalar tree_4_3_u07_r9_network.node[19].core_layer 	data[19] 	8686
scalar tree_4_3_u07_r9_network.node[19].content_store 	p_hit[19] 	0.31719204465058
scalar tree_4_3_u07_r9_network.node[19].content_store 	hits[19] 	4035
scalar tree_4_3_u07_r9_network.node[19].content_store 	misses[19] 	8686
scalar tree_4_3_u07_r9_network.node[19].content_store 	decision_yes[19] 	119
scalar tree_4_3_u07_r9_network.node[19].content_store 	decision_no[19] 	8567
scalar tree_4_3_u07_r9_network.node[19].content_store 	decision_ratio[19] 	0.013700207230025
scalar tree_4_3_u07_r9_network.node[20].core_layer 	interests[20] 	12782
scalar tree_4_3_u07_r9_network.node[20].core_layer 	data[20] 	9005
scalar tree_4_3_u07_r9_network.node[20].content_store 	p_hit[20] 	0.29549366296354
scalar tree_4_3_u07_r9_network.node[20].content_store 	hits[20] 	3777
scalar tree_4_3_u07_r9_network.node[20].content_store 	misses[20] 	9005
scalar tree_4_3_u07_r9_network.node[20].content_store 	decision_yes[20] 	96
scalar tree_4_3_u07_r9_network.node[20].content_store 	decision_no[20] 	8909
scalar tree_4_3_u07_r9_network.node[20].content_store 	decision_ratio[20] 	0.010660744031094
scalar tree_4_3_u07_r9_network.node[21].core_layer 	interests[21] 	12533
scalar tree_4_3_u07_r9_network.node[21].core_layer 	data[21] 	8806
scalar tree_4_3_u07_r9_network.node[21].content_store 	p_hit[21] 	0.29745471954041
scalar tree_4_3_u07_r9_network.node[21].content_store 	hits[21] 	3728
scalar tree_4_3_u07_r9_network.node[21].content_store 	misses[21] 	8805
scalar tree_4_3_u07_r9_network.node[21].content_store 	decision_yes[21] 	94
scalar tree_4_3_u07_r9_network.node[21].content_store 	decision_no[21] 	8712
scalar tree_4_3_u07_r9_network.node[21].content_store 	decision_ratio[21] 	0.010674540086305
scalar tree_4_3_u07_r9_network.node[22].core_layer 	interests[22] 	12172
scalar tree_4_3_u07_r9_network.node[22].core_layer 	data[22] 	8702
scalar tree_4_3_u07_r9_network.node[22].content_store 	p_hit[22] 	0.28499835688465
scalar tree_4_3_u07_r9_network.node[22].content_store 	hits[22] 	3469
scalar tree_4_3_u07_r9_network.node[22].content_store 	misses[22] 	8703
scalar tree_4_3_u07_r9_network.node[22].content_store 	decision_yes[22] 	120
scalar tree_4_3_u07_r9_network.node[22].content_store 	decision_no[22] 	8582
scalar tree_4_3_u07_r9_network.node[22].content_store 	decision_ratio[22] 	0.013789933348655
scalar tree_4_3_u07_r9_network.node[23].core_layer 	interests[23] 	12916
scalar tree_4_3_u07_r9_network.node[23].core_layer 	data[23] 	8843
scalar tree_4_3_u07_r9_network.node[23].content_store 	p_hit[23] 	0.31526788479405
scalar tree_4_3_u07_r9_network.node[23].content_store 	hits[23] 	4072
scalar tree_4_3_u07_r9_network.node[23].content_store 	misses[23] 	8844
scalar tree_4_3_u07_r9_network.node[23].content_store 	decision_yes[23] 	110
scalar tree_4_3_u07_r9_network.node[23].content_store 	decision_no[23] 	8733
scalar tree_4_3_u07_r9_network.node[23].content_store 	decision_ratio[23] 	0.012439217460138
scalar tree_4_3_u07_r9_network.node[24].core_layer 	interests[24] 	13148
scalar tree_4_3_u07_r9_network.node[24].core_layer 	data[24] 	8906
scalar tree_4_3_u07_r9_network.node[24].content_store 	p_hit[24] 	0.32248250684515
scalar tree_4_3_u07_r9_network.node[24].content_store 	hits[24] 	4240
scalar tree_4_3_u07_r9_network.node[24].content_store 	misses[24] 	8908
scalar tree_4_3_u07_r9_network.node[24].content_store 	decision_yes[24] 	104
scalar tree_4_3_u07_r9_network.node[24].content_store 	decision_no[24] 	8802
scalar tree_4_3_u07_r9_network.node[24].content_store 	decision_ratio[24] 	0.011677520772513
scalar tree_4_3_u07_r9_network.node[25].core_layer 	interests[25] 	12432
scalar tree_4_3_u07_r9_network.node[25].core_layer 	data[25] 	8812
scalar tree_4_3_u07_r9_network.node[25].content_store 	p_hit[25] 	0.29118404118404
scalar tree_4_3_u07_r9_network.node[25].content_store 	hits[25] 	3620
scalar tree_4_3_u07_r9_network.node[25].content_store 	misses[25] 	8812
scalar tree_4_3_u07_r9_network.node[25].content_store 	decision_yes[25] 	99
scalar tree_4_3_u07_r9_network.node[25].content_store 	decision_no[25] 	8713
scalar tree_4_3_u07_r9_network.node[25].content_store 	decision_ratio[25] 	0.011234679981843
scalar tree_4_3_u07_r9_network.node[26].core_layer 	interests[26] 	12332
scalar tree_4_3_u07_r9_network.node[26].core_layer 	data[26] 	8752
scalar tree_4_3_u07_r9_network.node[26].content_store 	p_hit[26] 	0.29030165423289
scalar tree_4_3_u07_r9_network.node[26].content_store 	hits[26] 	3580
scalar tree_4_3_u07_r9_network.node[26].content_store 	misses[26] 	8752
scalar tree_4_3_u07_r9_network.node[26].content_store 	decision_yes[26] 	112
scalar tree_4_3_u07_r9_network.node[26].content_store 	decision_no[26] 	8640
scalar tree_4_3_u07_r9_network.node[26].content_store 	decision_ratio[26] 	0.012797074954296
scalar tree_4_3_u07_r9_network.node[27].core_layer 	interests[27] 	13177
scalar tree_4_3_u07_r9_network.node[27].core_layer 	data[27] 	8861
scalar tree_4_3_u07_r9_network.node[27].content_store 	p_hit[27] 	0.32754041132276
scalar tree_4_3_u07_r9_network.node[27].content_store 	hits[27] 	4316
scalar tree_4_3_u07_r9_network.node[27].content_store 	misses[27] 	8861
scalar tree_4_3_u07_r9_network.node[27].content_store 	decision_yes[27] 	109
scalar tree_4_3_u07_r9_network.node[27].content_store 	decision_no[27] 	8752
scalar tree_4_3_u07_r9_network.node[27].content_store 	decision_ratio[27] 	0.012301094684573
scalar tree_4_3_u07_r9_network.node[28].core_layer 	interests[28] 	12558
scalar tree_4_3_u07_r9_network.node[28].core_layer 	data[28] 	8877
scalar tree_4_3_u07_r9_network.node[28].content_store 	p_hit[28] 	0.29304029304029
scalar tree_4_3_u07_r9_network.node[28].content_store 	hits[28] 	3680
scalar tree_4_3_u07_r9_network.node[28].content_store 	misses[28] 	8878
scalar tree_4_3_u07_r9_network.node[28].content_store 	decision_yes[28] 	118
scalar tree_4_3_u07_r9_network.node[28].content_store 	decision_no[28] 	8759
scalar tree_4_3_u07_r9_network.node[28].content_store 	decision_ratio[28] 	0.013292779092036
scalar tree_4_3_u07_r9_network.node[29].core_layer 	interests[29] 	13088
scalar tree_4_3_u07_r9_network.node[29].core_layer 	data[29] 	8882
scalar tree_4_3_u07_r9_network.node[29].content_store 	p_hit[29] 	0.3213630806846
scalar tree_4_3_u07_r9_network.node[29].content_store 	hits[29] 	4206
scalar tree_4_3_u07_r9_network.node[29].content_store 	misses[29] 	8882
scalar tree_4_3_u07_r9_network.node[29].content_store 	decision_yes[29] 	110
scalar tree_4_3_u07_r9_network.node[29].content_store 	decision_no[29] 	8772
scalar tree_4_3_u07_r9_network.node[29].content_store 	decision_ratio[29] 	0.012384598063499
scalar tree_4_3_u07_r9_network.node[30].core_layer 	interests[30] 	12602
scalar tree_4_3_u07_r9_network.node[30].core_layer 	data[30] 	8774
scalar tree_4_3_u07_r9_network.node[30].content_store 	p_hit[30] 	0.30376130772893
scalar tree_4_3_u07_r9_network.node[30].content_store 	hits[30] 	3828
scalar tree_4_3_u07_r9_network.node[30].content_store 	misses[30] 	8774
scalar tree_4_3_u07_r9_network.node[30].content_store 	decision_yes[30] 	134
scalar tree_4_3_u07_r9_network.node[30].content_store 	decision_no[30] 	8640
scalar tree_4_3_u07_r9_network.node[30].content_store 	decision_ratio[30] 	0.015272395714611
scalar tree_4_3_u07_r9_network.node[31].core_layer 	interests[31] 	12416
scalar tree_4_3_u07_r9_network.node[31].core_layer 	data[31] 	8789
scalar tree_4_3_u07_r9_network.node[31].content_store 	p_hit[31] 	0.29212306701031
scalar tree_4_3_u07_r9_network.node[31].content_store 	hits[31] 	3627
scalar tree_4_3_u07_r9_network.node[31].content_store 	misses[31] 	8789
scalar tree_4_3_u07_r9_network.node[31].content_store 	decision_yes[31] 	106
scalar tree_4_3_u07_r9_network.node[31].content_store 	decision_no[31] 	8683
scalar tree_4_3_u07_r9_network.node[31].content_store 	decision_ratio[31] 	0.012060530208215
scalar tree_4_3_u07_r9_network.node[32].core_layer 	interests[32] 	12746
scalar tree_4_3_u07_r9_network.node[32].core_layer 	data[32] 	8708
scalar tree_4_3_u07_r9_network.node[32].content_store 	p_hit[32] 	0.31680527224227
scalar tree_4_3_u07_r9_network.node[32].content_store 	hits[32] 	4038
scalar tree_4_3_u07_r9_network.node[32].content_store 	misses[32] 	8708
scalar tree_4_3_u07_r9_network.node[32].content_store 	decision_yes[32] 	119
scalar tree_4_3_u07_r9_network.node[32].content_store 	decision_no[32] 	8589
scalar tree_4_3_u07_r9_network.node[32].content_store 	decision_ratio[32] 	0.013665594855305
scalar tree_4_3_u07_r9_network.node[33].core_layer 	interests[33] 	12823
scalar tree_4_3_u07_r9_network.node[33].core_layer 	data[33] 	8827
scalar tree_4_3_u07_r9_network.node[33].content_store 	p_hit[33] 	0.31162754425641
scalar tree_4_3_u07_r9_network.node[33].content_store 	hits[33] 	3996
scalar tree_4_3_u07_r9_network.node[33].content_store 	misses[33] 	8827
scalar tree_4_3_u07_r9_network.node[33].content_store 	decision_yes[33] 	125
scalar tree_4_3_u07_r9_network.node[33].content_store 	decision_no[33] 	8702
scalar tree_4_3_u07_r9_network.node[33].content_store 	decision_ratio[33] 	0.014161096635323
scalar tree_4_3_u07_r9_network.node[34].core_layer 	interests[34] 	13054
scalar tree_4_3_u07_r9_network.node[34].core_layer 	data[34] 	8764
scalar tree_4_3_u07_r9_network.node[34].content_store 	p_hit[34] 	0.32848169143558
scalar tree_4_3_u07_r9_network.node[34].content_store 	hits[34] 	4288
scalar tree_4_3_u07_r9_network.node[34].content_store 	misses[34] 	8766
scalar tree_4_3_u07_r9_network.node[34].content_store 	decision_yes[34] 	118
scalar tree_4_3_u07_r9_network.node[34].content_store 	decision_no[34] 	8646
scalar tree_4_3_u07_r9_network.node[34].content_store 	decision_ratio[34] 	0.013464171611136
scalar tree_4_3_u07_r9_network.node[35].core_layer 	interests[35] 	12391
scalar tree_4_3_u07_r9_network.node[35].core_layer 	data[35] 	8680
scalar tree_4_3_u07_r9_network.node[35].content_store 	p_hit[35] 	0.29949156645953
scalar tree_4_3_u07_r9_network.node[35].content_store 	hits[35] 	3711
scalar tree_4_3_u07_r9_network.node[35].content_store 	misses[35] 	8680
scalar tree_4_3_u07_r9_network.node[35].content_store 	decision_yes[35] 	113
scalar tree_4_3_u07_r9_network.node[35].content_store 	decision_no[35] 	8567
scalar tree_4_3_u07_r9_network.node[35].content_store 	decision_ratio[35] 	0.013018433179724
scalar tree_4_3_u07_r9_network.node[36].core_layer 	interests[36] 	12513
scalar tree_4_3_u07_r9_network.node[36].core_layer 	data[36] 	8763
scalar tree_4_3_u07_r9_network.node[36].content_store 	p_hit[36] 	0.29968832414289
scalar tree_4_3_u07_r9_network.node[36].content_store 	hits[36] 	3750
scalar tree_4_3_u07_r9_network.node[36].content_store 	misses[36] 	8763
scalar tree_4_3_u07_r9_network.node[36].content_store 	decision_yes[36] 	103
scalar tree_4_3_u07_r9_network.node[36].content_store 	decision_no[36] 	8660
scalar tree_4_3_u07_r9_network.node[36].content_store 	decision_ratio[36] 	0.011753965536917
scalar tree_4_3_u07_r9_network.node[37].core_layer 	interests[37] 	12689
scalar tree_4_3_u07_r9_network.node[37].core_layer 	data[37] 	8733
scalar tree_4_3_u07_r9_network.node[37].content_store 	p_hit[37] 	0.31176609661912
scalar tree_4_3_u07_r9_network.node[37].content_store 	hits[37] 	3956
scalar tree_4_3_u07_r9_network.node[37].content_store 	misses[37] 	8733
scalar tree_4_3_u07_r9_network.node[37].content_store 	decision_yes[37] 	130
scalar tree_4_3_u07_r9_network.node[37].content_store 	decision_no[37] 	8603
scalar tree_4_3_u07_r9_network.node[37].content_store 	decision_ratio[37] 	0.014886064353601
scalar tree_4_3_u07_r9_network.node[38].core_layer 	interests[38] 	12860
scalar tree_4_3_u07_r9_network.node[38].core_layer 	data[38] 	8879
scalar tree_4_3_u07_r9_network.node[38].content_store 	p_hit[38] 	0.30956454121306
scalar tree_4_3_u07_r9_network.node[38].content_store 	hits[38] 	3981
scalar tree_4_3_u07_r9_network.node[38].content_store 	misses[38] 	8879
scalar tree_4_3_u07_r9_network.node[38].content_store 	decision_yes[38] 	114
scalar tree_4_3_u07_r9_network.node[38].content_store 	decision_no[38] 	8765
scalar tree_4_3_u07_r9_network.node[38].content_store 	decision_ratio[38] 	0.01283928370312
scalar tree_4_3_u07_r9_network.node[39].core_layer 	interests[39] 	12144
scalar tree_4_3_u07_r9_network.node[39].core_layer 	data[39] 	8633
scalar tree_4_3_u07_r9_network.node[39].content_store 	p_hit[39] 	0.28903162055336
scalar tree_4_3_u07_r9_network.node[39].content_store 	hits[39] 	3510
scalar tree_4_3_u07_r9_network.node[39].content_store 	misses[39] 	8634
scalar tree_4_3_u07_r9_network.node[39].content_store 	decision_yes[39] 	106
scalar tree_4_3_u07_r9_network.node[39].content_store 	decision_no[39] 	8527
scalar tree_4_3_u07_r9_network.node[39].content_store 	decision_ratio[39] 	0.012278466350052
scalar tree_4_3_u07_r9_network.client[13] 	hdistance[13] 	2.6443621399177
scalar tree_4_3_u07_r9_network.client[13] 	downloads[13] 	12150
scalar tree_4_3_u07_r9_network.client[13] 	avg_time[13] 	0.004109791198
scalar tree_4_3_u07_r9_network.client[14] 	hdistance[14] 	2.5936478672589
scalar tree_4_3_u07_r9_network.client[14] 	downloads[14] 	11933
scalar tree_4_3_u07_r9_network.client[14] 	avg_time[14] 	0.004059160725
scalar tree_4_3_u07_r9_network.client[15] 	hdistance[15] 	2.5960165975104
scalar tree_4_3_u07_r9_network.client[15] 	downloads[15] 	12050
scalar tree_4_3_u07_r9_network.client[15] 	avg_time[15] 	0.004072362121
scalar tree_4_3_u07_r9_network.client[16] 	hdistance[16] 	2.588603370599
scalar tree_4_3_u07_r9_network.client[16] 	downloads[16] 	11986
scalar tree_4_3_u07_r9_network.client[16] 	avg_time[16] 	0.004044833069
scalar tree_4_3_u07_r9_network.client[17] 	hdistance[17] 	2.6540509066711
scalar tree_4_3_u07_r9_network.client[17] 	downloads[17] 	12022
scalar tree_4_3_u07_r9_network.client[17] 	avg_time[17] 	0.004173678554
scalar tree_4_3_u07_r9_network.client[18] 	hdistance[18] 	2.5504488031915
scalar tree_4_3_u07_r9_network.client[18] 	downloads[18] 	12032
scalar tree_4_3_u07_r9_network.client[18] 	avg_time[18] 	0.004011798871
scalar tree_4_3_u07_r9_network.client[19] 	hdistance[19] 	2.5858680792891
scalar tree_4_3_u07_r9_network.client[19] 	downloads[19] 	11704
scalar tree_4_3_u07_r9_network.client[19] 	avg_time[19] 	0.004047331337
scalar tree_4_3_u07_r9_network.client[20] 	hdistance[20] 	2.645303686749
scalar tree_4_3_u07_r9_network.client[20] 	downloads[20] 	12233
scalar tree_4_3_u07_r9_network.client[20] 	avg_time[20] 	0.004157603426
scalar tree_4_3_u07_r9_network.client[21] 	hdistance[21] 	2.6287475016655
scalar tree_4_3_u07_r9_network.client[21] 	downloads[21] 	12008
scalar tree_4_3_u07_r9_network.client[21] 	avg_time[21] 	0.004141902405
scalar tree_4_3_u07_r9_network.client[22] 	hdistance[22] 	2.6822296730931
scalar tree_4_3_u07_r9_network.client[22] 	downloads[22] 	11930
scalar tree_4_3_u07_r9_network.client[22] 	avg_time[22] 	0.004201145352
scalar tree_4_3_u07_r9_network.client[23] 	hdistance[23] 	2.6150651939208
scalar tree_4_3_u07_r9_network.client[23] 	downloads[23] 	12041
scalar tree_4_3_u07_r9_network.client[23] 	avg_time[23] 	0.004061328089
scalar tree_4_3_u07_r9_network.client[24] 	hdistance[24] 	2.5874617484079
scalar tree_4_3_u07_r9_network.client[24] 	downloads[24] 	12091
scalar tree_4_3_u07_r9_network.client[24] 	avg_time[24] 	0.004065277416
scalar tree_4_3_u07_r9_network.client[25] 	hdistance[25] 	2.6669994176857
scalar tree_4_3_u07_r9_network.client[25] 	downloads[25] 	12021
scalar tree_4_3_u07_r9_network.client[25] 	avg_time[25] 	0.004159218369
scalar tree_4_3_u07_r9_network.client[26] 	hdistance[26] 	2.6740471562579
scalar tree_4_3_u07_r9_network.client[26] 	downloads[26] 	11833
scalar tree_4_3_u07_r9_network.client[26] 	avg_time[26] 	0.004175607604
scalar tree_4_3_u07_r9_network.client[27] 	hdistance[27] 	2.5798417326114
scalar tree_4_3_u07_r9_network.client[27] 	downloads[27] 	12005
scalar tree_4_3_u07_r9_network.client[27] 	avg_time[27] 	0.004049476371
scalar tree_4_3_u07_r9_network.client[28] 	hdistance[28] 	2.6630770515068
scalar tree_4_3_u07_r9_network.client[28] 	downloads[28] 	11979
scalar tree_4_3_u07_r9_network.client[28] 	avg_time[28] 	0.004193869785
scalar tree_4_3_u07_r9_network.client[29] 	hdistance[29] 	2.5864536528541
scalar tree_4_3_u07_r9_network.client[29] 	downloads[29] 	12018
scalar tree_4_3_u07_r9_network.client[29] 	avg_time[29] 	0.004053916135
scalar tree_4_3_u07_r9_network.client[30] 	hdistance[30] 	2.6242064817909
scalar tree_4_3_u07_r9_network.client[30] 	downloads[30] 	11972
scalar tree_4_3_u07_r9_network.client[30] 	avg_time[30] 	0.004140927753
scalar tree_4_3_u07_r9_network.client[31] 	hdistance[31] 	2.6826955354146
scalar tree_4_3_u07_r9_network.client[31] 	downloads[31] 	11916
scalar tree_4_3_u07_r9_network.client[31] 	avg_time[31] 	0.004211477369
scalar tree_4_3_u07_r9_network.client[32] 	hdistance[32] 	2.622697563874
scalar tree_4_3_u07_r9_network.client[32] 	downloads[32] 	11781
scalar tree_4_3_u07_r9_network.client[32] 	avg_time[32] 	0.004087935255
scalar tree_4_3_u07_r9_network.client[33] 	hdistance[33] 	2.6055810079134
scalar tree_4_3_u07_r9_network.client[33] 	downloads[33] 	12005
scalar tree_4_3_u07_r9_network.client[33] 	avg_time[33] 	0.004063803751
scalar tree_4_3_u07_r9_network.client[34] 	hdistance[34] 	2.5777961888981
scalar tree_4_3_u07_r9_network.client[34] 	downloads[34] 	12070
scalar tree_4_3_u07_r9_network.client[34] 	avg_time[34] 	0.004021509453
scalar tree_4_3_u07_r9_network.client[35] 	hdistance[35] 	2.6439628482972
scalar tree_4_3_u07_r9_network.client[35] 	downloads[35] 	11951
scalar tree_4_3_u07_r9_network.client[35] 	avg_time[35] 	0.004143081267
scalar tree_4_3_u07_r9_network.client[36] 	hdistance[36] 	2.6726056043496
scalar tree_4_3_u07_r9_network.client[36] 	downloads[36] 	11955
scalar tree_4_3_u07_r9_network.client[36] 	avg_time[36] 	0.004187199026
scalar tree_4_3_u07_r9_network.client[37] 	hdistance[37] 	2.6080740117746
scalar tree_4_3_u07_r9_network.client[37] 	downloads[37] 	11890
scalar tree_4_3_u07_r9_network.client[37] 	avg_time[37] 	0.004072158558
scalar tree_4_3_u07_r9_network.client[38] 	hdistance[38] 	2.6131762363093
scalar tree_4_3_u07_r9_network.client[38] 	downloads[38] 	12052
scalar tree_4_3_u07_r9_network.client[38] 	avg_time[38] 	0.004075337154
scalar tree_4_3_u07_r9_network.client[39] 	hdistance[39] 	2.6383014434374
scalar tree_4_3_u07_r9_network.client[39] 	downloads[39] 	11916
scalar tree_4_3_u07_r9_network.client[39] 	avg_time[39] 	0.004139079962
