version 2
run General-456-20160901-09:47:35-8710
attr a 0.9
attr cd ffc
attr configname General
attr cr lru
attr datetime 20160901-09:47:35
attr experiment General
attr fsize 1
attr inifile hw5115/scenario_Y/omnetp.ini
attr iterationvars "$name=tree_4_3, $un=07, $rep=13, $cd=ffc, $cr=lru, $fsize=1, $a=0.9, $sl=nrr, $ttl=1000, $variance=0.05"
attr iterationvars2 "$name=tree_4_3, $un=07, $rep=13, $cd=ffc, $cr=lru, $fsize=1, $a=0.9, $sl=nrr, $ttl=1000, $variance=0.05, $repetition=0"
attr measurement "$name=tree_4_3, $un=07, $rep=13, $cd=ffc, $cr=lru, $fsize=1, $a=0.9, $sl=nrr, $ttl=1000, $variance=0.05"
attr name tree_4_3
attr network networks.${name}_u${un}_r${rep}_network
attr processid 8710
attr rep 13
attr repetition 0
attr replication #0
attr resultdir results
attr runnumber 456
attr seedset 13
attr sl nrr
attr ttl 1000
attr un 07
attr variance 0.05

scalar . 	a 	0.9
scalar . 	fsize 	1
scalar . 	rep 	13
scalar . 	ttl 	1000
scalar . 	un 	07
scalar . 	variance 	0.05
scalar tree_4_3_u07_r13_network.content_distribution 	repo-0 	0
scalar tree_4_3_u07_r13_network.content_distribution 	client-0 	13
scalar tree_4_3_u07_r13_network.content_distribution 	client-1 	14
scalar tree_4_3_u07_r13_network.content_distribution 	client-2 	15
scalar tree_4_3_u07_r13_network.content_distribution 	client-3 	16
scalar tree_4_3_u07_r13_network.content_distribution 	client-4 	17
scalar tree_4_3_u07_r13_network.content_distribution 	client-5 	18
scalar tree_4_3_u07_r13_network.content_distribution 	client-6 	19
scalar tree_4_3_u07_r13_network.content_distribution 	client-7 	20
scalar tree_4_3_u07_r13_network.content_distribution 	client-8 	21
scalar tree_4_3_u07_r13_network.content_distribution 	client-9 	22
scalar tree_4_3_u07_r13_network.content_distribution 	client-10 	23
scalar tree_4_3_u07_r13_network.content_distribution 	client-11 	24
scalar tree_4_3_u07_r13_network.content_distribution 	client-12 	25
scalar tree_4_3_u07_r13_network.content_distribution 	client-13 	26
scalar tree_4_3_u07_r13_network.content_distribution 	client-14 	27
scalar tree_4_3_u07_r13_network.content_distribution 	client-15 	28
scalar tree_4_3_u07_r13_network.content_distribution 	client-16 	29
scalar tree_4_3_u07_r13_network.content_distribution 	client-17 	30
scalar tree_4_3_u07_r13_network.content_distribution 	client-18 	31
scalar tree_4_3_u07_r13_network.content_distribution 	client-19 	32
scalar tree_4_3_u07_r13_network.content_distribution 	client-20 	33
scalar tree_4_3_u07_r13_network.content_distribution 	client-21 	34
scalar tree_4_3_u07_r13_network.content_distribution 	client-22 	35
scalar tree_4_3_u07_r13_network.content_distribution 	client-23 	36
scalar tree_4_3_u07_r13_network.content_distribution 	client-24 	37
scalar tree_4_3_u07_r13_network.content_distribution 	client-25 	38
scalar tree_4_3_u07_r13_network.content_distribution 	client-26 	39
scalar tree_4_3_u07_r13_network.content_distribution 	repo-0_card 	100000
scalar tree_4_3_u07_r13_network.content_distribution 	repo-0_price 	0
scalar tree_4_3_u07_r13_network.statistics 	stabilization_time 	1137.3
scalar tree_4_3_u07_r13_network.statistics 	p_hit 	0.23529283331305
scalar tree_4_3_u07_r13_network.statistics 	interests 	24687.325
scalar tree_4_3_u07_r13_network.statistics 	data 	16595.025
scalar tree_4_3_u07_r13_network.statistics 	hdistance 	2.6273626387646
scalar tree_4_3_u07_r13_network.statistics 	avg_time 	0.004101465603
scalar tree_4_3_u07_r13_network.statistics 	downloads 	323691
scalar tree_4_3_u07_r13_network.statistics 	total_cost 	0
scalar tree_4_3_u07_r13_network.statistics 	total_replicas 	100000
scalar tree_4_3_u07_r13_network.statistics 	inner_hit 	0.42344087416703
scalar tree_4_3_u07_r13_network.node[0].core_layer 	interests[0] 	189268
scalar tree_4_3_u07_r13_network.node[0].core_layer 	repo_load[0] 	186627
scalar tree_4_3_u07_r13_network.node[0].core_layer 	data[0] 	0
scalar tree_4_3_u07_r13_network.node[0].core_layer 	repo_int[0] 	186627
scalar tree_4_3_u07_r13_network.node[0].content_store 	p_hit[0] 	0.013953758691379
scalar tree_4_3_u07_r13_network.node[0].content_store 	hits[0] 	2641
scalar tree_4_3_u07_r13_network.node[0].content_store 	misses[0] 	186627
scalar tree_4_3_u07_r13_network.node[0].content_store 	decision_yes[0] 	900
scalar tree_4_3_u07_r13_network.node[0].content_store 	decision_no[0] 	185727
scalar tree_4_3_u07_r13_network.node[0].content_store 	decision_ratio[0] 	0.0048224533427639
scalar tree_4_3_u07_r13_network.node[1].core_layer 	interests[1] 	103086
scalar tree_4_3_u07_r13_network.node[1].core_layer 	data[1] 	101079
scalar tree_4_3_u07_r13_network.node[1].content_store 	p_hit[1] 	0.019459480433813
scalar tree_4_3_u07_r13_network.node[1].content_store 	hits[1] 	2006
scalar tree_4_3_u07_r13_network.node[1].content_store 	misses[1] 	101080
scalar tree_4_3_u07_r13_network.node[1].content_store 	decision_yes[1] 	505
scalar tree_4_3_u07_r13_network.node[1].content_store 	decision_no[1] 	100574
scalar tree_4_3_u07_r13_network.node[1].content_store 	decision_ratio[1] 	0.0049960921655339
scalar tree_4_3_u07_r13_network.node[2].core_layer 	interests[2] 	32735
scalar tree_4_3_u07_r13_network.node[2].core_layer 	data[2] 	30926
scalar tree_4_3_u07_r13_network.node[2].content_store 	p_hit[2] 	0.055261952039102
scalar tree_4_3_u07_r13_network.node[2].content_store 	hits[2] 	1809
scalar tree_4_3_u07_r13_network.node[2].content_store 	misses[2] 	30926
scalar tree_4_3_u07_r13_network.node[2].content_store 	decision_yes[2] 	202
scalar tree_4_3_u07_r13_network.node[2].content_store 	decision_no[2] 	30724
scalar tree_4_3_u07_r13_network.node[2].content_store 	decision_ratio[2] 	0.0065317208821057
scalar tree_4_3_u07_r13_network.node[3].core_layer 	interests[3] 	70648
scalar tree_4_3_u07_r13_network.node[3].core_layer 	data[3] 	68268
scalar tree_4_3_u07_r13_network.node[3].content_store 	p_hit[3] 	0.033688144038048
scalar tree_4_3_u07_r13_network.node[3].content_store 	hits[3] 	2380
scalar tree_4_3_u07_r13_network.node[3].content_store 	misses[3] 	68268
scalar tree_4_3_u07_r13_network.node[3].content_store 	decision_yes[3] 	452
scalar tree_4_3_u07_r13_network.node[3].content_store 	decision_no[3] 	67816
scalar tree_4_3_u07_r13_network.node[3].content_store 	decision_ratio[3] 	0.0066209644342884
scalar tree_4_3_u07_r13_network.node[4].core_layer 	interests[4] 	42239
scalar tree_4_3_u07_r13_network.node[4].core_layer 	data[4] 	39657
scalar tree_4_3_u07_r13_network.node[4].content_store 	p_hit[4] 	0.061104666303653
scalar tree_4_3_u07_r13_network.node[4].content_store 	hits[4] 	2581
scalar tree_4_3_u07_r13_network.node[4].content_store 	misses[4] 	39658
scalar tree_4_3_u07_r13_network.node[4].content_store 	decision_yes[4] 	335
scalar tree_4_3_u07_r13_network.node[4].content_store 	decision_no[4] 	39322
scalar tree_4_3_u07_r13_network.node[4].content_store 	decision_ratio[4] 	0.0084474367703054
scalar tree_4_3_u07_r13_network.node[5].core_layer 	interests[5] 	26378
scalar tree_4_3_u07_r13_network.node[5].core_layer 	data[5] 	23767
scalar tree_4_3_u07_r13_network.node[5].content_store 	p_hit[5] 	0.098946091439836
scalar tree_4_3_u07_r13_network.node[5].content_store 	hits[5] 	2610
scalar tree_4_3_u07_r13_network.node[5].content_store 	misses[5] 	23768
scalar tree_4_3_u07_r13_network.node[5].content_store 	decision_yes[5] 	220
scalar tree_4_3_u07_r13_network.node[5].content_store 	decision_no[5] 	23547
scalar tree_4_3_u07_r13_network.node[5].content_store 	decision_ratio[5] 	0.0092565321664493
scalar tree_4_3_u07_r13_network.node[6].core_layer 	interests[6] 	15398
scalar tree_4_3_u07_r13_network.node[6].core_layer 	data[6] 	11730
scalar tree_4_3_u07_r13_network.node[6].content_store 	p_hit[6] 	0.23821275490323
scalar tree_4_3_u07_r13_network.node[6].content_store 	hits[6] 	3668
scalar tree_4_3_u07_r13_network.node[6].content_store 	misses[6] 	11730
scalar tree_4_3_u07_r13_network.node[6].content_store 	decision_yes[6] 	393
scalar tree_4_3_u07_r13_network.node[6].content_store 	decision_no[6] 	11337
scalar tree_4_3_u07_r13_network.node[6].content_store 	decision_ratio[6] 	0.033503836317136
scalar tree_4_3_u07_r13_network.node[7].core_layer 	interests[7] 	44859
scalar tree_4_3_u07_r13_network.node[7].core_layer 	data[7] 	41859
scalar tree_4_3_u07_r13_network.node[7].content_store 	p_hit[7] 	0.066853920060634
scalar tree_4_3_u07_r13_network.node[7].content_store 	hits[7] 	2999
scalar tree_4_3_u07_r13_network.node[7].content_store 	misses[7] 	41860
scalar tree_4_3_u07_r13_network.node[7].content_store 	decision_yes[7] 	398
scalar tree_4_3_u07_r13_network.node[7].content_store 	decision_no[7] 	41461
scalar tree_4_3_u07_r13_network.node[7].content_store 	decision_ratio[7] 	0.0095081105616474
scalar tree_4_3_u07_r13_network.node[8].core_layer 	interests[8] 	17765
scalar tree_4_3_u07_r13_network.node[8].core_layer 	data[8] 	16299
scalar tree_4_3_u07_r13_network.node[8].content_store 	p_hit[8] 	0.08257810301154
scalar tree_4_3_u07_r13_network.node[8].content_store 	hits[8] 	1467
scalar tree_4_3_u07_r13_network.node[8].content_store 	misses[8] 	16298
scalar tree_4_3_u07_r13_network.node[8].content_store 	decision_yes[8] 	167
scalar tree_4_3_u07_r13_network.node[8].content_store 	decision_no[8] 	16132
scalar tree_4_3_u07_r13_network.node[8].content_store 	decision_ratio[8] 	0.010246027363642
scalar tree_4_3_u07_r13_network.node[9].core_layer 	interests[9] 	20211
scalar tree_4_3_u07_r13_network.node[9].core_layer 	data[9] 	17497
scalar tree_4_3_u07_r13_network.node[9].content_store 	p_hit[9] 	0.1342338330612
scalar tree_4_3_u07_r13_network.node[9].content_store 	hits[9] 	2713
scalar tree_4_3_u07_r13_network.node[9].content_store 	misses[9] 	17498
scalar tree_4_3_u07_r13_network.node[9].content_store 	decision_yes[9] 	240
scalar tree_4_3_u07_r13_network.node[9].content_store 	decision_no[9] 	17257
scalar tree_4_3_u07_r13_network.node[9].content_store 	decision_ratio[9] 	0.013716637137795
scalar tree_4_3_u07_r13_network.node[10].core_layer 	interests[10] 	34295
scalar tree_4_3_u07_r13_network.node[10].core_layer 	data[10] 	32093
scalar tree_4_3_u07_r13_network.node[10].content_store 	p_hit[10] 	0.06417845166934
scalar tree_4_3_u07_r13_network.node[10].content_store 	hits[10] 	2201
scalar tree_4_3_u07_r13_network.node[10].content_store 	misses[10] 	32094
scalar tree_4_3_u07_r13_network.node[10].content_store 	decision_yes[10] 	309
scalar tree_4_3_u07_r13_network.node[10].content_store 	decision_no[10] 	31784
scalar tree_4_3_u07_r13_network.node[10].content_store 	decision_ratio[10] 	0.0096282678465709
scalar tree_4_3_u07_r13_network.node[11].core_layer 	interests[11] 	35805
scalar tree_4_3_u07_r13_network.node[11].core_layer 	data[11] 	33317
scalar tree_4_3_u07_r13_network.node[11].content_store 	p_hit[11] 	0.069487501745566
scalar tree_4_3_u07_r13_network.node[11].content_store 	hits[11] 	2488
scalar tree_4_3_u07_r13_network.node[11].content_store 	misses[11] 	33317
scalar tree_4_3_u07_r13_network.node[11].content_store 	decision_yes[11] 	309
scalar tree_4_3_u07_r13_network.node[11].content_store 	decision_no[11] 	33008
scalar tree_4_3_u07_r13_network.node[11].content_store 	decision_ratio[11] 	0.0092745445268181
scalar tree_4_3_u07_r13_network.node[12].core_layer 	interests[12] 	12156
scalar tree_4_3_u07_r13_network.node[12].core_layer 	data[12] 	9207
scalar tree_4_3_u07_r13_network.node[12].content_store 	p_hit[12] 	0.24259624876604
scalar tree_4_3_u07_r13_network.node[12].content_store 	hits[12] 	2949
scalar tree_4_3_u07_r13_network.node[12].content_store 	misses[12] 	9207
scalar tree_4_3_u07_r13_network.node[12].content_store 	decision_yes[12] 	185
scalar tree_4_3_u07_r13_network.node[12].content_store 	decision_no[12] 	9022
scalar tree_4_3_u07_r13_network.node[12].content_store 	decision_ratio[12] 	0.020093407190181
scalar tree_4_3_u07_r13_network.node[13].core_layer 	interests[13] 	12285
scalar tree_4_3_u07_r13_network.node[13].core_layer 	data[13] 	8721
scalar tree_4_3_u07_r13_network.node[13].content_store 	p_hit[13] 	0.29019129019129
scalar tree_4_3_u07_r13_network.node[13].content_store 	hits[13] 	3565
scalar tree_4_3_u07_r13_network.node[13].content_store 	misses[13] 	8720
scalar tree_4_3_u07_r13_network.node[13].content_store 	decision_yes[13] 	129
scalar tree_4_3_u07_r13_network.node[13].content_store 	decision_no[13] 	8592
scalar tree_4_3_u07_r13_network.node[13].content_store 	decision_ratio[13] 	0.014791881664947
scalar tree_4_3_u07_r13_network.node[14].core_layer 	interests[14] 	13056
scalar tree_4_3_u07_r13_network.node[14].core_layer 	data[14] 	9053
scalar tree_4_3_u07_r13_network.node[14].content_store 	p_hit[14] 	0.30660232843137
scalar tree_4_3_u07_r13_network.node[14].content_store 	hits[14] 	4003
scalar tree_4_3_u07_r13_network.node[14].content_store 	misses[14] 	9053
scalar tree_4_3_u07_r13_network.node[14].content_store 	decision_yes[14] 	140
scalar tree_4_3_u07_r13_network.node[14].content_store 	decision_no[14] 	8913
scalar tree_4_3_u07_r13_network.node[14].content_store 	decision_ratio[14] 	0.015464486910416
scalar tree_4_3_u07_r13_network.node[15].core_layer 	interests[15] 	13064
scalar tree_4_3_u07_r13_network.node[15].core_layer 	data[15] 	8992
scalar tree_4_3_u07_r13_network.node[15].content_store 	p_hit[15] 	0.31169626454378
scalar tree_4_3_u07_r13_network.node[15].content_store 	hits[15] 	4072
scalar tree_4_3_u07_r13_network.node[15].content_store 	misses[15] 	8992
scalar tree_4_3_u07_r13_network.node[15].content_store 	decision_yes[15] 	133
scalar tree_4_3_u07_r13_network.node[15].content_store 	decision_no[15] 	8859
scalar tree_4_3_u07_r13_network.node[15].content_store 	decision_ratio[15] 	0.014790925266904
scalar tree_4_3_u07_r13_network.node[16].core_layer 	interests[16] 	12785
scalar tree_4_3_u07_r13_network.node[16].core_layer 	data[16] 	8761
scalar tree_4_3_u07_r13_network.node[16].content_store 	p_hit[16] 	0.31474384043801
scalar tree_4_3_u07_r13_network.node[16].content_store 	hits[16] 	4024
scalar tree_4_3_u07_r13_network.node[16].content_store 	misses[16] 	8761
scalar tree_4_3_u07_r13_network.node[16].content_store 	decision_yes[16] 	113
scalar tree_4_3_u07_r13_network.node[16].content_store 	decision_no[16] 	8648
scalar tree_4_3_u07_r13_network.node[16].content_store 	decision_ratio[16] 	0.012898070996462
scalar tree_4_3_u07_r13_network.node[17].core_layer 	interests[17] 	12245
scalar tree_4_3_u07_r13_network.node[17].core_layer 	data[17] 	8660
scalar tree_4_3_u07_r13_network.node[17].content_store 	p_hit[17] 	0.29277256022866
scalar tree_4_3_u07_r13_network.node[17].content_store 	hits[17] 	3585
scalar tree_4_3_u07_r13_network.node[17].content_store 	misses[17] 	8660
scalar tree_4_3_u07_r13_network.node[17].content_store 	decision_yes[17] 	112
scalar tree_4_3_u07_r13_network.node[17].content_store 	decision_no[17] 	8548
scalar tree_4_3_u07_r13_network.node[17].content_store 	decision_ratio[17] 	0.012933025404157
scalar tree_4_3_u07_r13_network.node[18].core_layer 	interests[18] 	12880
scalar tree_4_3_u07_r13_network.node[18].core_layer 	data[18] 	8674
scalar tree_4_3_u07_r13_network.node[18].content_store 	p_hit[18] 	0.3264751552795
scalar tree_4_3_u07_r13_network.node[18].content_store 	hits[18] 	4205
scalar tree_4_3_u07_r13_network.node[18].content_store 	misses[18] 	8675
scalar tree_4_3_u07_r13_network.node[18].content_store 	decision_yes[18] 	117
scalar tree_4_3_u07_r13_network.node[18].content_store 	decision_no[18] 	8557
scalar tree_4_3_u07_r13_network.node[18].content_store 	decision_ratio[18] 	0.013488586580586
scalar tree_4_3_u07_r13_network.node[19].core_layer 	interests[19] 	12969
scalar tree_4_3_u07_r13_network.node[19].core_layer 	data[19] 	8944
scalar tree_4_3_u07_r13_network.node[19].content_store 	p_hit[19] 	0.31035546302722
scalar tree_4_3_u07_r13_network.node[19].content_store 	hits[19] 	4025
scalar tree_4_3_u07_r13_network.node[19].content_store 	misses[19] 	8944
scalar tree_4_3_u07_r13_network.node[19].content_store 	decision_yes[19] 	140
scalar tree_4_3_u07_r13_network.node[19].content_store 	decision_no[19] 	8804
scalar tree_4_3_u07_r13_network.node[19].content_store 	decision_ratio[19] 	0.015652951699463
scalar tree_4_3_u07_r13_network.node[20].core_layer 	interests[20] 	13089
scalar tree_4_3_u07_r13_network.node[20].core_layer 	data[20] 	8937
scalar tree_4_3_u07_r13_network.node[20].content_store 	p_hit[20] 	0.31721292688517
scalar tree_4_3_u07_r13_network.node[20].content_store 	hits[20] 	4152
scalar tree_4_3_u07_r13_network.node[20].content_store 	misses[20] 	8937
scalar tree_4_3_u07_r13_network.node[20].content_store 	decision_yes[20] 	127
scalar tree_4_3_u07_r13_network.node[20].content_store 	decision_no[20] 	8810
scalar tree_4_3_u07_r13_network.node[20].content_store 	decision_ratio[20] 	0.014210585207564
scalar tree_4_3_u07_r13_network.node[21].core_layer 	interests[21] 	12488
scalar tree_4_3_u07_r13_network.node[21].core_layer 	data[21] 	8832
scalar tree_4_3_u07_r13_network.node[21].content_store 	p_hit[21] 	0.29276105060858
scalar tree_4_3_u07_r13_network.node[21].content_store 	hits[21] 	3656
scalar tree_4_3_u07_r13_network.node[21].content_store 	misses[21] 	8832
scalar tree_4_3_u07_r13_network.node[21].content_store 	decision_yes[21] 	96
scalar tree_4_3_u07_r13_network.node[21].content_store 	decision_no[21] 	8736
scalar tree_4_3_u07_r13_network.node[21].content_store 	decision_ratio[21] 	0.010869565217391
scalar tree_4_3_u07_r13_network.node[22].core_layer 	interests[22] 	12664
scalar tree_4_3_u07_r13_network.node[22].core_layer 	data[22] 	8847
scalar tree_4_3_u07_r13_network.node[22].content_store 	p_hit[22] 	0.30132659507265
scalar tree_4_3_u07_r13_network.node[22].content_store 	hits[22] 	3816
scalar tree_4_3_u07_r13_network.node[22].content_store 	misses[22] 	8848
scalar tree_4_3_u07_r13_network.node[22].content_store 	decision_yes[22] 	123
scalar tree_4_3_u07_r13_network.node[22].content_store 	decision_no[22] 	8724
scalar tree_4_3_u07_r13_network.node[22].content_store 	decision_ratio[22] 	0.013903017972194
scalar tree_4_3_u07_r13_network.node[23].core_layer 	interests[23] 	12603
scalar tree_4_3_u07_r13_network.node[23].core_layer 	data[23] 	8880
scalar tree_4_3_u07_r13_network.node[23].content_store 	p_hit[23] 	0.29540585574863
scalar tree_4_3_u07_r13_network.node[23].content_store 	hits[23] 	3723
scalar tree_4_3_u07_r13_network.node[23].content_store 	misses[23] 	8880
scalar tree_4_3_u07_r13_network.node[23].content_store 	decision_yes[23] 	128
scalar tree_4_3_u07_r13_network.node[23].content_store 	decision_no[23] 	8752
scalar tree_4_3_u07_r13_network.node[23].content_store 	decision_ratio[23] 	0.014414414414414
scalar tree_4_3_u07_r13_network.node[24].core_layer 	interests[24] 	13123
scalar tree_4_3_u07_r13_network.node[24].core_layer 	data[24] 	8810
scalar tree_4_3_u07_r13_network.node[24].content_store 	p_hit[24] 	0.32865960527318
scalar tree_4_3_u07_r13_network.node[24].content_store 	hits[24] 	4313
scalar tree_4_3_u07_r13_network.node[24].content_store 	misses[24] 	8810
scalar tree_4_3_u07_r13_network.node[24].content_store 	decision_yes[24] 	114
scalar tree_4_3_u07_r13_network.node[24].content_store 	decision_no[24] 	8696
scalar tree_4_3_u07_r13_network.node[24].content_store 	decision_ratio[24] 	0.012939841089671
scalar tree_4_3_u07_r13_network.node[25].core_layer 	interests[25] 	13063
scalar tree_4_3_u07_r13_network.node[25].core_layer 	data[25] 	8891
scalar tree_4_3_u07_r13_network.node[25].content_store 	p_hit[25] 	0.31937533491541
scalar tree_4_3_u07_r13_network.node[25].content_store 	hits[25] 	4172
scalar tree_4_3_u07_r13_network.node[25].content_store 	misses[25] 	8891
scalar tree_4_3_u07_r13_network.node[25].content_store 	decision_yes[25] 	117
scalar tree_4_3_u07_r13_network.node[25].content_store 	decision_no[25] 	8774
scalar tree_4_3_u07_r13_network.node[25].content_store 	decision_ratio[25] 	0.013159374648521
scalar tree_4_3_u07_r13_network.node[26].core_layer 	interests[26] 	12329
scalar tree_4_3_u07_r13_network.node[26].core_layer 	data[26] 	8797
scalar tree_4_3_u07_r13_network.node[26].content_store 	p_hit[26] 	0.28656014275286
scalar tree_4_3_u07_r13_network.node[26].content_store 	hits[26] 	3533
scalar tree_4_3_u07_r13_network.node[26].content_store 	misses[26] 	8796
scalar tree_4_3_u07_r13_network.node[26].content_store 	decision_yes[26] 	98
scalar tree_4_3_u07_r13_network.node[26].content_store 	decision_no[26] 	8699
scalar tree_4_3_u07_r13_network.node[26].content_store 	decision_ratio[26] 	0.011140161418665
scalar tree_4_3_u07_r13_network.node[27].core_layer 	interests[27] 	12501
scalar tree_4_3_u07_r13_network.node[27].core_layer 	data[27] 	8636
scalar tree_4_3_u07_r13_network.node[27].content_store 	p_hit[27] 	0.30917526597872
scalar tree_4_3_u07_r13_network.node[27].content_store 	hits[27] 	3865
scalar tree_4_3_u07_r13_network.node[27].content_store 	misses[27] 	8636
scalar tree_4_3_u07_r13_network.node[27].content_store 	decision_yes[27] 	106
scalar tree_4_3_u07_r13_network.node[27].content_store 	decision_no[27] 	8530
scalar tree_4_3_u07_r13_network.node[27].content_store 	decision_ratio[27] 	0.01227420101899
scalar tree_4_3_u07_r13_network.node[28].core_layer 	interests[28] 	13143
scalar tree_4_3_u07_r13_network.node[28].core_layer 	data[28] 	8983
scalar tree_4_3_u07_r13_network.node[28].content_store 	p_hit[28] 	0.31651829871414
scalar tree_4_3_u07_r13_network.node[28].content_store 	hits[28] 	4160
scalar tree_4_3_u07_r13_network.node[28].content_store 	misses[28] 	8983
scalar tree_4_3_u07_r13_network.node[28].content_store 	decision_yes[28] 	117
scalar tree_4_3_u07_r13_network.node[28].content_store 	decision_no[28] 	8866
scalar tree_4_3_u07_r13_network.node[28].content_store 	decision_ratio[28] 	0.013024602026049
scalar tree_4_3_u07_r13_network.node[29].core_layer 	interests[29] 	12334
scalar tree_4_3_u07_r13_network.node[29].core_layer 	data[29] 	8802
scalar tree_4_3_u07_r13_network.node[29].content_store 	p_hit[29] 	0.28636289930274
scalar tree_4_3_u07_r13_network.node[29].content_store 	hits[29] 	3532
scalar tree_4_3_u07_r13_network.node[29].content_store 	misses[29] 	8802
scalar tree_4_3_u07_r13_network.node[29].content_store 	decision_yes[29] 	103
scalar tree_4_3_u07_r13_network.node[29].content_store 	decision_no[29] 	8699
scalar tree_4_3_u07_r13_network.node[29].content_store 	decision_ratio[29] 	0.011701885935015
scalar tree_4_3_u07_r13_network.node[30].core_layer 	interests[30] 	12384
scalar tree_4_3_u07_r13_network.node[30].core_layer 	data[30] 	8733
scalar tree_4_3_u07_r13_network.node[30].content_store 	p_hit[30] 	0.29473514211886
scalar tree_4_3_u07_r13_network.node[30].content_store 	hits[30] 	3650
scalar tree_4_3_u07_r13_network.node[30].content_store 	misses[30] 	8734
scalar tree_4_3_u07_r13_network.node[30].content_store 	decision_yes[30] 	101
scalar tree_4_3_u07_r13_network.node[30].content_store 	decision_no[30] 	8632
scalar tree_4_3_u07_r13_network.node[30].content_store 	decision_ratio[30] 	0.011565326920875
scalar tree_4_3_u07_r13_network.node[31].core_layer 	interests[31] 	12476
scalar tree_4_3_u07_r13_network.node[31].core_layer 	data[31] 	8768
scalar tree_4_3_u07_r13_network.node[31].content_store 	p_hit[31] 	0.29721064443732
scalar tree_4_3_u07_r13_network.node[31].content_store 	hits[31] 	3708
scalar tree_4_3_u07_r13_network.node[31].content_store 	misses[31] 	8768
scalar tree_4_3_u07_r13_network.node[31].content_store 	decision_yes[31] 	124
scalar tree_4_3_u07_r13_network.node[31].content_store 	decision_no[31] 	8644
scalar tree_4_3_u07_r13_network.node[31].content_store 	decision_ratio[31] 	0.014142335766423
scalar tree_4_3_u07_r13_network.node[32].core_layer 	interests[32] 	13034
scalar tree_4_3_u07_r13_network.node[32].core_layer 	data[32] 	8889
scalar tree_4_3_u07_r13_network.node[32].content_store 	p_hit[32] 	0.31793770139635
scalar tree_4_3_u07_r13_network.node[32].content_store 	hits[32] 	4144
scalar tree_4_3_u07_r13_network.node[32].content_store 	misses[32] 	8890
scalar tree_4_3_u07_r13_network.node[32].content_store 	decision_yes[32] 	130
scalar tree_4_3_u07_r13_network.node[32].content_store 	decision_no[32] 	8759
scalar tree_4_3_u07_r13_network.node[32].content_store 	decision_ratio[32] 	0.014624817189785
scalar tree_4_3_u07_r13_network.node[33].core_layer 	interests[33] 	12662
scalar tree_4_3_u07_r13_network.node[33].core_layer 	data[33] 	8785
scalar tree_4_3_u07_r13_network.node[33].content_store 	p_hit[33] 	0.30619175485705
scalar tree_4_3_u07_r13_network.node[33].content_store 	hits[33] 	3877
scalar tree_4_3_u07_r13_network.node[33].content_store 	misses[33] 	8785
scalar tree_4_3_u07_r13_network.node[33].content_store 	decision_yes[33] 	116
scalar tree_4_3_u07_r13_network.node[33].content_store 	decision_no[33] 	8669
scalar tree_4_3_u07_r13_network.node[33].content_store 	decision_ratio[33] 	0.013204325554923
scalar tree_4_3_u07_r13_network.node[34].core_layer 	interests[34] 	12422
scalar tree_4_3_u07_r13_network.node[34].core_layer 	data[34] 	8801
scalar tree_4_3_u07_r13_network.node[34].content_store 	p_hit[34] 	0.29149895346965
scalar tree_4_3_u07_r13_network.node[34].content_store 	hits[34] 	3621
scalar tree_4_3_u07_r13_network.node[34].content_store 	misses[34] 	8801
scalar tree_4_3_u07_r13_network.node[34].content_store 	decision_yes[34] 	112
scalar tree_4_3_u07_r13_network.node[34].content_store 	decision_no[34] 	8689
scalar tree_4_3_u07_r13_network.node[34].content_store 	decision_ratio[34] 	0.012725826610612
scalar tree_4_3_u07_r13_network.node[35].core_layer 	interests[35] 	12452
scalar tree_4_3_u07_r13_network.node[35].core_layer 	data[35] 	8822
scalar tree_4_3_u07_r13_network.node[35].content_store 	p_hit[35] 	0.29151943462898
scalar tree_4_3_u07_r13_network.node[35].content_store 	hits[35] 	3630
scalar tree_4_3_u07_r13_network.node[35].content_store 	misses[35] 	8822
scalar tree_4_3_u07_r13_network.node[35].content_store 	decision_yes[35] 	127
scalar tree_4_3_u07_r13_network.node[35].content_store 	decision_no[35] 	8695
scalar tree_4_3_u07_r13_network.node[35].content_store 	decision_ratio[35] 	0.014395828610292
scalar tree_4_3_u07_r13_network.node[36].core_layer 	interests[36] 	12863
scalar tree_4_3_u07_r13_network.node[36].core_layer 	data[36] 	8785
scalar tree_4_3_u07_r13_network.node[36].content_store 	p_hit[36] 	0.31703335147322
scalar tree_4_3_u07_r13_network.node[36].content_store 	hits[36] 	4078
scalar tree_4_3_u07_r13_network.node[36].content_store 	misses[36] 	8785
scalar tree_4_3_u07_r13_network.node[36].content_store 	decision_yes[36] 	123
scalar tree_4_3_u07_r13_network.node[36].content_store 	decision_no[36] 	8662
scalar tree_4_3_u07_r13_network.node[36].content_store 	decision_ratio[36] 	0.014001138303927
scalar tree_4_3_u07_r13_network.node[37].core_layer 	interests[37] 	12680
scalar tree_4_3_u07_r13_network.node[37].core_layer 	data[37] 	8821
scalar tree_4_3_u07_r13_network.node[37].content_store 	p_hit[37] 	0.30433753943218
scalar tree_4_3_u07_r13_network.node[37].content_store 	hits[37] 	3859
scalar tree_4_3_u07_r13_network.node[37].content_store 	misses[37] 	8821
scalar tree_4_3_u07_r13_network.node[37].content_store 	decision_yes[37] 	123
scalar tree_4_3_u07_r13_network.node[37].content_store 	decision_no[37] 	8698
scalar tree_4_3_u07_r13_network.node[37].content_store 	decision_ratio[37] 	0.01394399727922
scalar tree_4_3_u07_r13_network.node[38].core_layer 	interests[38] 	12803
scalar tree_4_3_u07_r13_network.node[38].core_layer 	data[38] 	8844
scalar tree_4_3_u07_r13_network.node[38].content_store 	p_hit[38] 	0.30922440053113
scalar tree_4_3_u07_r13_network.node[38].content_store 	hits[38] 	3959
scalar tree_4_3_u07_r13_network.node[38].content_store 	misses[38] 	8844
scalar tree_4_3_u07_r13_network.node[38].content_store 	decision_yes[38] 	109
scalar tree_4_3_u07_r13_network.node[38].content_store 	decision_no[38] 	8735
scalar tree_4_3_u07_r13_network.node[38].content_store 	decision_ratio[38] 	0.01232473993668
scalar tree_4_3_u07_r13_network.node[39].core_layer 	interests[39] 	12253
scalar tree_4_3_u07_r13_network.node[39].core_layer 	data[39] 	8634
scalar tree_4_3_u07_r13_network.node[39].content_store 	p_hit[39] 	0.29527462662205
scalar tree_4_3_u07_r13_network.node[39].content_store 	hits[39] 	3618
scalar tree_4_3_u07_r13_network.node[39].content_store 	misses[39] 	8635
scalar tree_4_3_u07_r13_network.node[39].content_store 	decision_yes[39] 	94
scalar tree_4_3_u07_r13_network.node[39].content_store 	decision_no[39] 	8540
scalar tree_4_3_u07_r13_network.node[39].content_store 	decision_ratio[39] 	0.010887190178365
scalar tree_4_3_u07_r13_network.client[13] 	hdistance[13] 	2.6731699041479
scalar tree_4_3_u07_r13_network.client[13] 	downloads[13] 	11789
scalar tree_4_3_u07_r13_network.client[13] 	avg_time[13] 	0.004186272404
scalar tree_4_3_u07_r13_network.client[14] 	hdistance[14] 	2.6136103386226
scalar tree_4_3_u07_r13_network.client[14] 	downloads[14] 	12226
scalar tree_4_3_u07_r13_network.client[14] 	avg_time[14] 	0.004074592067
scalar tree_4_3_u07_r13_network.client[15] 	hdistance[15] 	2.6026545002074
scalar tree_4_3_u07_r13_network.client[15] 	downloads[15] 	12055
scalar tree_4_3_u07_r13_network.client[15] 	avg_time[15] 	0.004083779676
scalar tree_4_3_u07_r13_network.client[16] 	hdistance[16] 	2.6054553084347
scalar tree_4_3_u07_r13_network.client[16] 	downloads[16] 	11915
scalar tree_4_3_u07_r13_network.client[16] 	avg_time[16] 	0.004054885859
scalar tree_4_3_u07_r13_network.client[17] 	hdistance[17] 	2.6570129651456
scalar tree_4_3_u07_r13_network.client[17] 	downloads[17] 	11878
scalar tree_4_3_u07_r13_network.client[17] 	avg_time[17] 	0.00415258347
scalar tree_4_3_u07_r13_network.client[18] 	hdistance[18] 	2.5360480640855
scalar tree_4_3_u07_r13_network.client[18] 	downloads[18] 	11984
scalar tree_4_3_u07_r13_network.client[18] 	avg_time[18] 	0.003975904783
scalar tree_4_3_u07_r13_network.client[19] 	hdistance[19] 	2.6146406536602
scalar tree_4_3_u07_r13_network.client[19] 	downloads[19] 	11994
scalar tree_4_3_u07_r13_network.client[19] 	avg_time[19] 	0.00410332435
scalar tree_4_3_u07_r13_network.client[20] 	hdistance[20] 	2.5789084333388
scalar tree_4_3_u07_r13_network.client[20] 	downloads[20] 	12166
scalar tree_4_3_u07_r13_network.client[20] 	avg_time[20] 	0.004040437548
scalar tree_4_3_u07_r13_network.client[21] 	hdistance[21] 	2.6415517527829
scalar tree_4_3_u07_r13_network.client[21] 	downloads[21] 	12038
scalar tree_4_3_u07_r13_network.client[21] 	avg_time[21] 	0.004160113446
scalar tree_4_3_u07_r13_network.client[22] 	hdistance[22] 	2.6337045039056
scalar tree_4_3_u07_r13_network.client[22] 	downloads[22] 	12034
scalar tree_4_3_u07_r13_network.client[22] 	avg_time[22] 	0.004134876607
scalar tree_4_3_u07_r13_network.client[23] 	hdistance[23] 	2.6605359520639
scalar tree_4_3_u07_r13_network.client[23] 	downloads[23] 	12016
scalar tree_4_3_u07_r13_network.client[23] 	avg_time[23] 	0.004178758656
scalar tree_4_3_u07_r13_network.client[24] 	hdistance[24] 	2.5837946653246
scalar tree_4_3_u07_r13_network.client[24] 	downloads[24] 	11922
scalar tree_4_3_u07_r13_network.client[24] 	avg_time[24] 	0.00404260732
scalar tree_4_3_u07_r13_network.client[25] 	hdistance[25] 	2.605883823652
scalar tree_4_3_u07_r13_network.client[25] 	downloads[25] 	11999
scalar tree_4_3_u07_r13_network.client[25] 	avg_time[25] 	0.00407733676
scalar tree_4_3_u07_r13_network.client[26] 	hdistance[26] 	2.6786067193676
scalar tree_4_3_u07_r13_network.client[26] 	downloads[26] 	12144
scalar tree_4_3_u07_r13_network.client[26] 	avg_time[26] 	0.004172757148
scalar tree_4_3_u07_r13_network.client[27] 	hdistance[27] 	2.6290308857313
scalar tree_4_3_u07_r13_network.client[27] 	downloads[27] 	11753
scalar tree_4_3_u07_r13_network.client[27] 	avg_time[27] 	0.004062108855
scalar tree_4_3_u07_r13_network.client[28] 	hdistance[28] 	2.5971419131009
scalar tree_4_3_u07_r13_network.client[28] 	downloads[28] 	12106
scalar tree_4_3_u07_r13_network.client[28] 	avg_time[28] 	0.004056240092
scalar tree_4_3_u07_r13_network.client[29] 	hdistance[29] 	2.6678637046935
scalar tree_4_3_u07_r13_network.client[29] 	downloads[29] 	11974
scalar tree_4_3_u07_r13_network.client[29] 	avg_time[29] 	0.004138630716
scalar tree_4_3_u07_r13_network.client[30] 	hdistance[30] 	2.6526157947351
scalar tree_4_3_u07_r13_network.client[30] 	downloads[30] 	12004
scalar tree_4_3_u07_r13_network.client[30] 	avg_time[30] 	0.004114158108
scalar tree_4_3_u07_r13_network.client[31] 	hdistance[31] 	2.6454492849467
scalar tree_4_3_u07_r13_network.client[31] 	downloads[31] 	12097
scalar tree_4_3_u07_r13_network.client[31] 	avg_time[31] 	0.004143338283
scalar tree_4_3_u07_r13_network.client[32] 	hdistance[32] 	2.6129383211984
scalar tree_4_3_u07_r13_network.client[32] 	downloads[32] 	11949
scalar tree_4_3_u07_r13_network.client[32] 	avg_time[32] 	0.004073141185
scalar tree_4_3_u07_r13_network.client[33] 	hdistance[33] 	2.6178984414279
scalar tree_4_3_u07_r13_network.client[33] 	downloads[33] 	11934
scalar tree_4_3_u07_r13_network.client[33] 	avg_time[33] 	0.004064686151
scalar tree_4_3_u07_r13_network.client[34] 	hdistance[34] 	2.68196639077
scalar tree_4_3_u07_r13_network.client[34] 	downloads[34] 	11961
scalar tree_4_3_u07_r13_network.client[34] 	avg_time[34] 	0.004181252737
scalar tree_4_3_u07_r13_network.client[35] 	hdistance[35] 	2.6658858959344
scalar tree_4_3_u07_r13_network.client[35] 	downloads[35] 	11954
scalar tree_4_3_u07_r13_network.client[35] 	avg_time[35] 	0.004169647337
scalar tree_4_3_u07_r13_network.client[36] 	hdistance[36] 	2.6017803157541
scalar tree_4_3_u07_r13_network.client[36] 	downloads[36] 	11908
scalar tree_4_3_u07_r13_network.client[36] 	avg_time[36] 	0.00404433699
scalar tree_4_3_u07_r13_network.client[37] 	hdistance[37] 	2.6145850796312
scalar tree_4_3_u07_r13_network.client[37] 	downloads[37] 	11930
scalar tree_4_3_u07_r13_network.client[37] 	avg_time[37] 	0.004060181411
scalar tree_4_3_u07_r13_network.client[38] 	hdistance[38] 	2.6331578507563
scalar tree_4_3_u07_r13_network.client[38] 	downloads[38] 	11967
scalar tree_4_3_u07_r13_network.client[38] 	avg_time[38] 	0.004086735542
scalar tree_4_3_u07_r13_network.client[39] 	hdistance[39] 	2.6328997832249
scalar tree_4_3_u07_r13_network.client[39] 	downloads[39] 	11994
scalar tree_4_3_u07_r13_network.client[39] 	avg_time[39] 	0.004106883791
