version 2
run General-39-20160822-10:30:27-13100
attr D ffc0.05
attr F spr
attr R lru
attr a 0.7
attr configname General
attr datetime 20160822-10:30:27
attr experiment General
attr inifile hw5115/scenario_B/bus.ini
attr iterationvars "$net=bus, $rep=0, $a=0.7, $F=spr, $D=ffc0.05, $R=lru, $window=60, $variance=0.05, $mytime=600"
attr iterationvars2 "$net=bus, $rep=0, $a=0.7, $F=spr, $D=ffc0.05, $R=lru, $window=60, $variance=0.05, $mytime=600, $repetition=0"
attr measurement "$net=bus, $rep=0, $a=0.7, $F=spr, $D=ffc0.05, $R=lru, $window=60, $variance=0.05, $mytime=600"
attr mytime 600
attr net bus
attr network networks.${net=bus}_network
attr processid 13100
attr rep 0
attr repetition 0
attr replication #0
attr resultdir results
attr runnumber 39
attr seedset 0
attr variance 0.05
attr window 60

scalar . 	a 	0.7
scalar . 	mytime 	600
scalar . 	rep 	0
scalar . 	variance 	0.05
scalar . 	window 	60
scalar bus_network.content_distribution 	repo-0 	9
scalar bus_network.content_distribution 	client-0 	5
scalar bus_network.content_distribution 	client-1 	8
scalar bus_network.content_distribution 	client-2 	9
scalar bus_network.content_distribution 	client-3 	0
scalar bus_network.content_distribution 	client-4 	1
scalar bus_network.content_distribution 	client-5 	7
scalar bus_network.content_distribution 	client-6 	6
scalar bus_network.content_distribution 	client-7 	2
scalar bus_network.content_distribution 	client-8 	4
scalar bus_network.content_distribution 	client-9 	3
scalar bus_network.content_distribution 	repo-0_card 	100000
scalar bus_network.content_distribution 	repo-0_price 	0
scalar bus_network.statistics 	stabilization_time 	740.1
scalar bus_network.statistics 	p_hit 	0.020254134564716
scalar bus_network.statistics 	interests 	62362.2
scalar bus_network.statistics 	data 	50356.3
scalar bus_network.statistics 	hdistance 	5.1166624963388
scalar bus_network.statistics 	avg_time 	0.008389865037
scalar bus_network.statistics 	downloads 	120058
scalar bus_network.statistics 	total_cost 	0
scalar bus_network.statistics 	total_replicas 	100000
scalar bus_network.statistics 	inner_hit 	0.078562028352963
scalar bus_network.node[0].core_layer 	interests[0] 	11991
scalar bus_network.node[0].core_layer 	data[0] 	11362
scalar bus_network.node[0].core_layer 	repo_int[0] 	110626
scalar bus_network.node[0].content_store 	p_hit[0] 	0.052289216912685
scalar bus_network.node[0].content_store 	hits[0] 	627
scalar bus_network.node[0].content_store 	misses[0] 	11364
scalar bus_network.node[0].content_store 	decision_yes[0] 	572
scalar bus_network.node[0].content_store 	decision_no[0] 	10790
scalar bus_network.node[0].content_store 	decision_ratio[0] 	0.050343249427918
scalar bus_network.node[1].core_layer 	interests[1] 	23429
scalar bus_network.node[1].core_layer 	data[1] 	22688
scalar bus_network.node[1].content_store 	p_hit[1] 	0.031584788083145
scalar bus_network.node[1].content_store 	hits[1] 	740
scalar bus_network.node[1].content_store 	misses[1] 	22689
scalar bus_network.node[1].content_store 	decision_yes[1] 	1170
scalar bus_network.node[1].content_store 	decision_no[1] 	21518
scalar bus_network.node[1].content_store 	decision_ratio[1] 	0.051569111424542
scalar bus_network.node[2].core_layer 	interests[2] 	34606
scalar bus_network.node[2].core_layer 	data[2] 	33781
scalar bus_network.node[2].content_store 	p_hit[2] 	0.023810899843958
scalar bus_network.node[2].content_store 	hits[2] 	824
scalar bus_network.node[2].content_store 	misses[2] 	33782
scalar bus_network.node[2].content_store 	decision_yes[2] 	1623
scalar bus_network.node[2].content_store 	decision_no[2] 	32158
scalar bus_network.node[2].content_store 	decision_ratio[2] 	0.048044758888132
scalar bus_network.node[3].core_layer 	interests[3] 	45760
scalar bus_network.node[3].core_layer 	data[3] 	44991
scalar bus_network.node[3].content_store 	p_hit[3] 	0.016826923076923
scalar bus_network.node[3].content_store 	hits[3] 	770
scalar bus_network.node[3].content_store 	misses[3] 	44990
scalar bus_network.node[3].content_store 	decision_yes[3] 	2356
scalar bus_network.node[3].content_store 	decision_no[3] 	42635
scalar bus_network.node[3].content_store 	decision_ratio[3] 	0.052366028761308
scalar bus_network.node[4].core_layer 	interests[4] 	56975
scalar bus_network.node[4].core_layer 	data[4] 	56078
scalar bus_network.node[4].content_store 	p_hit[4] 	0.015726195699868
scalar bus_network.node[4].content_store 	hits[4] 	896
scalar bus_network.node[4].content_store 	misses[4] 	56079
scalar bus_network.node[4].content_store 	decision_yes[4] 	2834
scalar bus_network.node[4].content_store 	decision_no[4] 	53244
scalar bus_network.node[4].content_store 	decision_ratio[4] 	0.050536752380613
scalar bus_network.node[5].core_layer 	interests[5] 	68064
scalar bus_network.node[5].core_layer 	data[5] 	67162
scalar bus_network.node[5].content_store 	p_hit[5] 	0.013237541137753
scalar bus_network.node[5].content_store 	hits[5] 	901
scalar bus_network.node[5].content_store 	misses[5] 	67163
scalar bus_network.node[5].content_store 	decision_yes[5] 	3444
scalar bus_network.node[5].content_store 	decision_no[5] 	63718
scalar bus_network.node[5].content_store 	decision_ratio[5] 	0.051278997051904
scalar bus_network.node[6].core_layer 	interests[6] 	79322
scalar bus_network.node[6].core_layer 	data[6] 	78177
scalar bus_network.node[6].content_store 	p_hit[6] 	0.014409621542573
scalar bus_network.node[6].content_store 	hits[6] 	1143
scalar bus_network.node[6].content_store 	misses[6] 	78179
scalar bus_network.node[6].content_store 	decision_yes[6] 	3889
scalar bus_network.node[6].content_store 	decision_no[6] 	74288
scalar bus_network.node[6].content_store 	decision_ratio[6] 	0.049746089003159
scalar bus_network.node[7].core_layer 	interests[7] 	90193
scalar bus_network.node[7].core_layer 	data[7] 	89188
scalar bus_network.node[7].content_store 	p_hit[7] 	0.011120596942113
scalar bus_network.node[7].content_store 	hits[7] 	1003
scalar bus_network.node[7].content_store 	misses[7] 	89190
scalar bus_network.node[7].content_store 	decision_yes[7] 	4446
scalar bus_network.node[7].content_store 	decision_no[7] 	84742
scalar bus_network.node[7].content_store 	decision_ratio[7] 	0.049849755572499
scalar bus_network.node[8].core_layer 	interests[8] 	101253
scalar bus_network.node[8].core_layer 	data[8] 	100136
scalar bus_network.node[8].content_store 	p_hit[8] 	0.011012019396956
scalar bus_network.node[8].content_store 	hits[8] 	1115
scalar bus_network.node[8].content_store 	misses[8] 	100138
scalar bus_network.node[8].content_store 	decision_yes[8] 	5029
scalar bus_network.node[8].content_store 	decision_no[8] 	95107
scalar bus_network.node[8].content_store 	decision_ratio[8] 	0.050221698490054
scalar bus_network.node[9].core_layer 	interests[9] 	112029
scalar bus_network.node[9].core_layer 	repo_load[9] 	110626
scalar bus_network.node[9].core_layer 	data[9] 	0
scalar bus_network.node[9].content_store 	p_hit[9] 	0.012523543011185
scalar bus_network.node[9].content_store 	hits[9] 	1403
scalar bus_network.node[9].content_store 	misses[9] 	110626
scalar bus_network.node[9].content_store 	decision_yes[9] 	6052
scalar bus_network.node[9].content_store 	decision_no[9] 	104574
scalar bus_network.node[9].content_store 	decision_ratio[9] 	0.05470685010757
scalar bus_network.client[0] 	hdistance[0] 	9.1356243222955
scalar bus_network.client[0] 	downloads[0] 	11989
scalar bus_network.client[0] 	avg_time[0] 	0.016492019387
scalar bus_network.client[1] 	hdistance[1] 	8.2328664954006
scalar bus_network.client[1] 	downloads[1] 	12067
scalar bus_network.client[1] 	avg_time[1] 	0.01468749182
scalar bus_network.client[2] 	hdistance[2] 	7.3677939078627
scalar bus_network.client[2] 	downloads[2] 	11917
scalar bus_network.client[2] 	avg_time[2] 	0.012941216948
scalar bus_network.client[3] 	hdistance[3] 	6.5173219801319
scalar bus_network.client[3] 	downloads[3] 	11979
scalar bus_network.client[3] 	avg_time[3] 	0.011224907052
scalar bus_network.client[4] 	hdistance[4] 	5.6246975385899
scalar bus_network.client[4] 	downloads[4] 	11985
scalar bus_network.client[4] 	avg_time[4] 	0.009418955886
scalar bus_network.client[5] 	hdistance[5] 	4.7224724724725
scalar bus_network.client[5] 	downloads[5] 	11988
scalar bus_network.client[5] 	avg_time[5] 	0.00760243276
scalar bus_network.client[6] 	hdistance[6] 	3.7952471013897
scalar bus_network.client[6] 	downloads[6] 	12161
scalar bus_network.client[6] 	avg_time[6] 	0.005728308772
scalar bus_network.client[7] 	hdistance[7] 	2.8694132334582
scalar bus_network.client[7] 	downloads[7] 	12015
scalar bus_network.client[7] 	avg_time[7] 	0.003858194792
scalar bus_network.client[8] 	hdistance[8] 	1.9249834217507
scalar bus_network.client[8] 	downloads[8] 	12064
scalar bus_network.client[8] 	avg_time[8] 	0.001945122961
scalar bus_network.client[9] 	hdistance[9] 	0.97620449003616
scalar bus_network.client[9] 	downloads[9] 	11893
scalar bus_network.client[9] 	avg_time[9] 	0
