version 2
run General-39-20160826-10:56:45-19693
attr D lcd
attr F nrr
attr R lru
attr a 0.9
attr configname General
attr datetime 20160826-10:56:45
attr experiment General
attr inifile hw5115/scenario_C/omnetp.ini
attr iterationvars "$net=tiger, $rep=5, $a=0.9, $F=nrr, $D=lcd, $R=lru, $window=60, $variance=0.05, $mytime=600"
attr iterationvars2 "$net=tiger, $rep=5, $a=0.9, $F=nrr, $D=lcd, $R=lru, $window=60, $variance=0.05, $mytime=600, $repetition=0"
attr measurement "$net=tiger, $rep=5, $a=0.9, $F=nrr, $D=lcd, $R=lru, $window=60, $variance=0.05, $mytime=600"
attr mytime 600
attr net tiger
attr network networks.${net=tiger}_network
attr processid 19693
attr rep 5
attr repetition 0
attr replication #0
attr resultdir results
attr runnumber 39
attr seedset 5
attr variance 0.05
attr window 60

scalar . 	a 	0.9
scalar . 	mytime 	600
scalar . 	rep 	5
scalar . 	variance 	0.05
scalar . 	window 	60
scalar tiger_network.content_distribution 	repo-0 	9
scalar tiger_network.content_distribution 	repo-1 	14
scalar tiger_network.content_distribution 	repo-2 	5
scalar tiger_network.content_distribution 	repo-3 	1
scalar tiger_network.content_distribution 	repo-4 	4
scalar tiger_network.content_distribution 	repo-5 	0
scalar tiger_network.content_distribution 	repo-6 	16
scalar tiger_network.content_distribution 	repo-7 	18
scalar tiger_network.content_distribution 	repo-8 	20
scalar tiger_network.content_distribution 	repo-9 	10
scalar tiger_network.content_distribution 	repo-10 	2
scalar tiger_network.content_distribution 	repo-11 	13
scalar tiger_network.content_distribution 	repo-12 	12
scalar tiger_network.content_distribution 	repo-13 	19
scalar tiger_network.content_distribution 	repo-14 	8
scalar tiger_network.content_distribution 	repo-15 	17
scalar tiger_network.content_distribution 	client-0 	21
scalar tiger_network.content_distribution 	client-1 	9
scalar tiger_network.content_distribution 	client-2 	6
scalar tiger_network.content_distribution 	client-3 	2
scalar tiger_network.content_distribution 	client-4 	14
scalar tiger_network.content_distribution 	client-5 	8
scalar tiger_network.content_distribution 	client-6 	17
scalar tiger_network.content_distribution 	client-7 	0
scalar tiger_network.content_distribution 	client-8 	19
scalar tiger_network.content_distribution 	client-9 	10
scalar tiger_network.content_distribution 	client-10 	13
scalar tiger_network.content_distribution 	client-11 	1
scalar tiger_network.content_distribution 	client-12 	3
scalar tiger_network.content_distribution 	client-13 	18
scalar tiger_network.content_distribution 	client-14 	15
scalar tiger_network.content_distribution 	client-15 	16
scalar tiger_network.content_distribution 	client-16 	12
scalar tiger_network.content_distribution 	client-17 	11
scalar tiger_network.content_distribution 	client-18 	7
scalar tiger_network.content_distribution 	client-19 	4
scalar tiger_network.content_distribution 	client-20 	5
scalar tiger_network.content_distribution 	client-21 	20
scalar tiger_network.content_distribution 	repo-0_card 	6289
scalar tiger_network.content_distribution 	repo-0_price 	0
scalar tiger_network.content_distribution 	repo-1_card 	6243
scalar tiger_network.content_distribution 	repo-1_price 	0
scalar tiger_network.content_distribution 	repo-2_card 	6284
scalar tiger_network.content_distribution 	repo-2_price 	0
scalar tiger_network.content_distribution 	repo-3_card 	6071
scalar tiger_network.content_distribution 	repo-3_price 	0
scalar tiger_network.content_distribution 	repo-4_card 	6173
scalar tiger_network.content_distribution 	repo-4_price 	0
scalar tiger_network.content_distribution 	repo-5_card 	6278
scalar tiger_network.content_distribution 	repo-5_price 	0
scalar tiger_network.content_distribution 	repo-6_card 	6354
scalar tiger_network.content_distribution 	repo-6_price 	0
scalar tiger_network.content_distribution 	repo-7_card 	6254
scalar tiger_network.content_distribution 	repo-7_price 	0
scalar tiger_network.content_distribution 	repo-8_card 	6276
scalar tiger_network.content_distribution 	repo-8_price 	0
scalar tiger_network.content_distribution 	repo-9_card 	6208
scalar tiger_network.content_distribution 	repo-9_price 	0
scalar tiger_network.content_distribution 	repo-10_card 	6278
scalar tiger_network.content_distribution 	repo-10_price 	0
scalar tiger_network.content_distribution 	repo-11_card 	6229
scalar tiger_network.content_distribution 	repo-11_price 	0
scalar tiger_network.content_distribution 	repo-12_card 	6192
scalar tiger_network.content_distribution 	repo-12_price 	0
scalar tiger_network.content_distribution 	repo-13_card 	6316
scalar tiger_network.content_distribution 	repo-13_price 	0
scalar tiger_network.content_distribution 	repo-14_card 	6239
scalar tiger_network.content_distribution 	repo-14_price 	0
scalar tiger_network.content_distribution 	repo-15_card 	6316
scalar tiger_network.content_distribution 	repo-15_price 	0
scalar tiger_network.statistics 	stabilization_time 	513.1
scalar tiger_network.statistics 	p_hit 	0.14846775865615
scalar tiger_network.statistics 	interests 	34912.545454545
scalar tiger_network.statistics 	data 	22936.545454545
scalar tiger_network.statistics 	hdistance 	2.5308169599188
scalar tiger_network.statistics 	avg_time 	0.000733847801
scalar tiger_network.statistics 	downloads 	263472
scalar tiger_network.statistics 	total_cost 	0
scalar tiger_network.statistics 	total_replicas 	100000
scalar tiger_network.statistics 	inner_hit 	0.38442035586324
scalar tiger_network.node[0].core_layer 	interests[0] 	45539
scalar tiger_network.node[0].core_layer 	repo_load[0] 	10827
scalar tiger_network.node[0].core_layer 	data[0] 	30736
scalar tiger_network.node[0].core_layer 	repo_int[0] 	162188
scalar tiger_network.node[0].content_store 	p_hit[0] 	0.087309778431674
scalar tiger_network.node[0].content_store 	hits[0] 	3976
scalar tiger_network.node[0].content_store 	misses[0] 	41563
scalar tiger_network.node[0].content_store 	decision_yes[0] 	14797
scalar tiger_network.node[0].content_store 	decision_no[0] 	26766
scalar tiger_network.node[0].content_store 	decision_ratio[0] 	0.35601376224045
scalar tiger_network.node[1].core_layer 	interests[1] 	50373
scalar tiger_network.node[1].core_layer 	repo_load[1] 	10227
scalar tiger_network.node[1].core_layer 	data[1] 	36616
scalar tiger_network.node[1].content_store 	p_hit[1] 	0.070057372004844
scalar tiger_network.node[1].content_store 	hits[1] 	3529
scalar tiger_network.node[1].content_store 	misses[1] 	46844
scalar tiger_network.node[1].content_store 	decision_yes[1] 	13095
scalar tiger_network.node[1].content_store 	decision_no[1] 	33748
scalar tiger_network.node[1].content_store 	decision_ratio[1] 	0.27955084004013
scalar tiger_network.node[2].core_layer 	interests[2] 	60807
scalar tiger_network.node[2].core_layer 	repo_load[2] 	10512
scalar tiger_network.node[2].core_layer 	data[2] 	46088
scalar tiger_network.node[2].content_store 	p_hit[2] 	0.069186113440887
scalar tiger_network.node[2].content_store 	hits[2] 	4207
scalar tiger_network.node[2].content_store 	misses[2] 	56600
scalar tiger_network.node[2].content_store 	decision_yes[2] 	15232
scalar tiger_network.node[2].content_store 	decision_no[2] 	41368
scalar tiger_network.node[2].content_store 	decision_ratio[2] 	0.26911660777385
scalar tiger_network.node[3].core_layer 	interests[3] 	48864
scalar tiger_network.node[3].core_layer 	data[3] 	41504
scalar tiger_network.node[3].content_store 	p_hit[3] 	0.15062213490504
scalar tiger_network.node[3].content_store 	hits[3] 	7360
scalar tiger_network.node[3].content_store 	misses[3] 	41504
scalar tiger_network.node[3].content_store 	decision_yes[3] 	2675
scalar tiger_network.node[3].content_store 	decision_no[3] 	38829
scalar tiger_network.node[3].content_store 	decision_ratio[3] 	0.064451619121049
scalar tiger_network.node[4].core_layer 	interests[4] 	40093
scalar tiger_network.node[4].core_layer 	repo_load[4] 	9868
scalar tiger_network.node[4].core_layer 	data[4] 	26820
scalar tiger_network.node[4].content_store 	p_hit[4] 	0.084927543461452
scalar tiger_network.node[4].content_store 	hits[4] 	3405
scalar tiger_network.node[4].content_store 	misses[4] 	36688
scalar tiger_network.node[4].content_store 	decision_yes[4] 	12864
scalar tiger_network.node[4].content_store 	decision_no[4] 	23823
scalar tiger_network.node[4].content_store 	decision_ratio[4] 	0.35064191675525
scalar tiger_network.node[5].core_layer 	interests[5] 	24271
scalar tiger_network.node[5].core_layer 	repo_load[5] 	10070
scalar tiger_network.node[5].core_layer 	data[5] 	10939
scalar tiger_network.node[5].content_store 	p_hit[5] 	0.13439907708788
scalar tiger_network.node[5].content_store 	hits[5] 	3262
scalar tiger_network.node[5].content_store 	misses[5] 	21009
scalar tiger_network.node[5].content_store 	decision_yes[5] 	12054
scalar tiger_network.node[5].content_store 	decision_no[5] 	8955
scalar tiger_network.node[5].content_store 	decision_ratio[5] 	0.57375410538341
scalar tiger_network.node[6].core_layer 	interests[6] 	28701
scalar tiger_network.node[6].core_layer 	data[6] 	22032
scalar tiger_network.node[6].content_store 	p_hit[6] 	0.23236124176858
scalar tiger_network.node[6].content_store 	hits[6] 	6669
scalar tiger_network.node[6].content_store 	misses[6] 	22032
scalar tiger_network.node[6].content_store 	decision_yes[6] 	1842
scalar tiger_network.node[6].content_store 	decision_no[6] 	20190
scalar tiger_network.node[6].content_store 	decision_ratio[6] 	0.083605664488017
scalar tiger_network.node[7].core_layer 	interests[7] 	34613
scalar tiger_network.node[7].core_layer 	data[7] 	27807
scalar tiger_network.node[7].content_store 	p_hit[7] 	0.19663132349117
scalar tiger_network.node[7].content_store 	hits[7] 	6806
scalar tiger_network.node[7].content_store 	misses[7] 	27807
scalar tiger_network.node[7].content_store 	decision_yes[7] 	1775
scalar tiger_network.node[7].content_store 	decision_no[7] 	26032
scalar tiger_network.node[7].content_store 	decision_ratio[7] 	0.063832847844068
scalar tiger_network.node[8].core_layer 	interests[8] 	47337
scalar tiger_network.node[8].core_layer 	repo_load[8] 	9944
scalar tiger_network.node[8].core_layer 	data[8] 	33484
scalar tiger_network.node[8].content_store 	p_hit[8] 	0.082578110146397
scalar tiger_network.node[8].content_store 	hits[8] 	3909
scalar tiger_network.node[8].content_store 	misses[8] 	43428
scalar tiger_network.node[8].content_store 	decision_yes[8] 	14645
scalar tiger_network.node[8].content_store 	decision_no[8] 	28783
scalar tiger_network.node[8].content_store 	decision_ratio[8] 	0.33722483190568
scalar tiger_network.node[9].core_layer 	interests[9] 	24282
scalar tiger_network.node[9].core_layer 	repo_load[9] 	10024
scalar tiger_network.node[9].core_layer 	data[9] 	11165
scalar tiger_network.node[9].content_store 	p_hit[9] 	0.12737830491722
scalar tiger_network.node[9].content_store 	hits[9] 	3093
scalar tiger_network.node[9].content_store 	misses[9] 	21189
scalar tiger_network.node[9].content_store 	decision_yes[9] 	12097
scalar tiger_network.node[9].content_store 	decision_no[9] 	9092
scalar tiger_network.node[9].content_store 	decision_ratio[9] 	0.57090943414036
scalar tiger_network.node[10].core_layer 	interests[10] 	28402
scalar tiger_network.node[10].core_layer 	repo_load[10] 	10007
scalar tiger_network.node[10].core_layer 	data[10] 	15047
scalar tiger_network.node[10].content_store 	p_hit[10] 	0.11787902260404
scalar tiger_network.node[10].content_store 	hits[10] 	3348
scalar tiger_network.node[10].content_store 	misses[10] 	25054
scalar tiger_network.node[10].content_store 	decision_yes[10] 	12397
scalar tiger_network.node[10].content_store 	decision_no[10] 	12657
scalar tiger_network.node[10].content_store 	decision_ratio[10] 	0.49481120779117
scalar tiger_network.node[11].core_layer 	interests[11] 	24583
scalar tiger_network.node[11].core_layer 	data[11] 	16502
scalar tiger_network.node[11].content_store 	p_hit[11] 	0.32872310133019
scalar tiger_network.node[11].content_store 	hits[11] 	8081
scalar tiger_network.node[11].content_store 	misses[11] 	16502
scalar tiger_network.node[11].content_store 	decision_yes[11] 	742
scalar tiger_network.node[11].content_store 	decision_no[11] 	15760
scalar tiger_network.node[11].content_store 	decision_ratio[11] 	0.044964246757969
scalar tiger_network.node[12].core_layer 	interests[12] 	39561
scalar tiger_network.node[12].core_layer 	repo_load[12] 	10082
scalar tiger_network.node[12].core_layer 	data[12] 	25404
scalar tiger_network.node[12].content_store 	p_hit[12] 	0.10295493036071
scalar tiger_network.node[12].content_store 	hits[12] 	4073
scalar tiger_network.node[12].content_store 	misses[12] 	35488
scalar tiger_network.node[12].content_store 	decision_yes[12] 	13596
scalar tiger_network.node[12].content_store 	decision_no[12] 	21890
scalar tiger_network.node[12].content_store 	decision_ratio[12] 	0.38313701177929
scalar tiger_network.node[13].core_layer 	interests[13] 	28008
scalar tiger_network.node[13].core_layer 	repo_load[13] 	10825
scalar tiger_network.node[13].core_layer 	data[13] 	13790
scalar tiger_network.node[13].content_store 	p_hit[13] 	0.12114395886889
scalar tiger_network.node[13].content_store 	hits[13] 	3393
scalar tiger_network.node[13].content_store 	misses[13] 	24615
scalar tiger_network.node[13].content_store 	decision_yes[13] 	12235
scalar tiger_network.node[13].content_store 	decision_no[13] 	12380
scalar tiger_network.node[13].content_store 	decision_ratio[13] 	0.49705464147877
scalar tiger_network.node[14].core_layer 	interests[14] 	25131
scalar tiger_network.node[14].core_layer 	repo_load[14] 	9920
scalar tiger_network.node[14].core_layer 	data[14] 	12103
scalar tiger_network.node[14].content_store 	p_hit[14] 	0.12367195893518
scalar tiger_network.node[14].content_store 	hits[14] 	3108
scalar tiger_network.node[14].content_store 	misses[14] 	22023
scalar tiger_network.node[14].content_store 	decision_yes[14] 	11990
scalar tiger_network.node[14].content_store 	decision_no[14] 	10033
scalar tiger_network.node[14].content_store 	decision_ratio[14] 	0.54443082232212
scalar tiger_network.node[15].core_layer 	interests[15] 	19947
scalar tiger_network.node[15].core_layer 	data[15] 	13146
scalar tiger_network.node[15].content_store 	p_hit[15] 	0.34095352684614
scalar tiger_network.node[15].content_store 	hits[15] 	6801
scalar tiger_network.node[15].content_store 	misses[15] 	13146
scalar tiger_network.node[15].content_store 	decision_yes[15] 	685
scalar tiger_network.node[15].content_store 	decision_no[15] 	12461
scalar tiger_network.node[15].content_store 	decision_ratio[15] 	0.05210710482276
scalar tiger_network.node[16].core_layer 	interests[16] 	29336
scalar tiger_network.node[16].core_layer 	repo_load[16] 	10525
scalar tiger_network.node[16].core_layer 	data[16] 	15179
scalar tiger_network.node[16].content_store 	p_hit[16] 	0.12380692664303
scalar tiger_network.node[16].content_store 	hits[16] 	3632
scalar tiger_network.node[16].content_store 	misses[16] 	25704
scalar tiger_network.node[16].content_store 	decision_yes[16] 	13638
scalar tiger_network.node[16].content_store 	decision_no[16] 	12066
scalar tiger_network.node[16].content_store 	decision_ratio[16] 	0.53057889822596
scalar tiger_network.node[17].core_layer 	interests[17] 	42281
scalar tiger_network.node[17].core_layer 	repo_load[17] 	10414
scalar tiger_network.node[17].core_layer 	data[17] 	28034
scalar tiger_network.node[17].content_store 	p_hit[17] 	0.090655377119746
scalar tiger_network.node[17].content_store 	hits[17] 	3833
scalar tiger_network.node[17].content_store 	misses[17] 	38448
scalar tiger_network.node[17].content_store 	decision_yes[17] 	13545
scalar tiger_network.node[17].content_store 	decision_no[17] 	24903
scalar tiger_network.node[17].content_store 	decision_ratio[17] 	0.35229400749064
scalar tiger_network.node[18].core_layer 	interests[18] 	47570
scalar tiger_network.node[18].core_layer 	repo_load[18] 	9521
scalar tiger_network.node[18].core_layer 	data[18] 	34226
scalar tiger_network.node[18].content_store 	p_hit[18] 	0.080365776750053
scalar tiger_network.node[18].content_store 	hits[18] 	3823
scalar tiger_network.node[18].content_store 	misses[18] 	43747
scalar tiger_network.node[18].content_store 	decision_yes[18] 	12539
scalar tiger_network.node[18].content_store 	decision_no[18] 	31208
scalar tiger_network.node[18].content_store 	decision_ratio[18] 	0.2866253685967
scalar tiger_network.node[19].core_layer 	interests[19] 	29820
scalar tiger_network.node[19].core_layer 	repo_load[19] 	9641
scalar tiger_network.node[19].core_layer 	data[19] 	16377
scalar tiger_network.node[19].content_store 	p_hit[19] 	0.12749832327297
scalar tiger_network.node[19].content_store 	hits[19] 	3802
scalar tiger_network.node[19].content_store 	misses[19] 	26018
scalar tiger_network.node[19].content_store 	decision_yes[19] 	12645
scalar tiger_network.node[19].content_store 	decision_no[19] 	13373
scalar tiger_network.node[19].content_store 	decision_ratio[19] 	0.48600968560228
scalar tiger_network.node[20].core_layer 	interests[20] 	25704
scalar tiger_network.node[20].core_layer 	repo_load[20] 	9781
scalar tiger_network.node[20].core_layer 	data[20] 	12702
scalar tiger_network.node[20].content_store 	p_hit[20] 	0.12531123560535
scalar tiger_network.node[20].content_store 	hits[20] 	3221
scalar tiger_network.node[20].content_store 	misses[20] 	22483
scalar tiger_network.node[20].content_store 	decision_yes[20] 	11898
scalar tiger_network.node[20].content_store 	decision_no[20] 	10585
scalar tiger_network.node[20].content_store 	decision_ratio[20] 	0.52919983987902
scalar tiger_network.node[21].core_layer 	interests[21] 	22853
scalar tiger_network.node[21].core_layer 	data[21] 	14903
scalar tiger_network.node[21].content_store 	p_hit[21] 	0.34787555244388
scalar tiger_network.node[21].content_store 	hits[21] 	7950
scalar tiger_network.node[21].content_store 	misses[21] 	14903
scalar tiger_network.node[21].content_store 	decision_yes[21] 	614
scalar tiger_network.node[21].content_store 	decision_no[21] 	14289
scalar tiger_network.node[21].content_store 	decision_ratio[21] 	0.041199758437898
scalar tiger_network.client[0] 	hdistance[0] 	2.3015273581739
scalar tiger_network.client[0] 	downloads[0] 	11916
scalar tiger_network.client[0] 	avg_time[0] 	0.000496081968
scalar tiger_network.client[1] 	hdistance[1] 	2.55607051229
scalar tiger_network.client[1] 	downloads[1] 	12083
scalar tiger_network.client[1] 	avg_time[1] 	0.000918089157
scalar tiger_network.client[2] 	hdistance[2] 	2.3213193353724
scalar tiger_network.client[2] 	downloads[2] 	12097
scalar tiger_network.client[2] 	avg_time[2] 	0.000923181256
scalar tiger_network.client[3] 	hdistance[3] 	2.3904392547003
scalar tiger_network.client[3] 	downloads[3] 	11861
scalar tiger_network.client[3] 	avg_time[3] 	0.000959887743
scalar tiger_network.client[4] 	hdistance[4] 	2.5267346431236
scalar tiger_network.client[4] 	downloads[4] 	12063
scalar tiger_network.client[4] 	avg_time[4] 	0.001046045076
scalar tiger_network.client[5] 	hdistance[5] 	2.7058378196501
scalar tiger_network.client[5] 	downloads[5] 	11888
scalar tiger_network.client[5] 	avg_time[5] 	0.001120416793
scalar tiger_network.client[6] 	hdistance[6] 	2.5443897470718
scalar tiger_network.client[6] 	downloads[6] 	11782
scalar tiger_network.client[6] 	avg_time[6] 	0.000728376778
scalar tiger_network.client[7] 	hdistance[7] 	2.4318372835771
scalar tiger_network.client[7] 	downloads[7] 	11898
scalar tiger_network.client[7] 	avg_time[7] 	0.000761753457
scalar tiger_network.client[8] 	hdistance[8] 	2.4694453669877
scalar tiger_network.client[8] 	downloads[8] 	12044
scalar tiger_network.client[8] 	avg_time[8] 	0.000791694467
scalar tiger_network.client[9] 	hdistance[9] 	2.8290386521308
scalar tiger_network.client[9] 	downloads[9] 	12108
scalar tiger_network.client[9] 	avg_time[9] 	0.000741347339
scalar tiger_network.client[10] 	hdistance[10] 	2.7330476430552
scalar tiger_network.client[10] 	downloads[10] 	11901
scalar tiger_network.client[10] 	avg_time[10] 	0.000760650753
scalar tiger_network.client[11] 	hdistance[11] 	2.4193359538346
scalar tiger_network.client[11] 	downloads[11] 	11957
scalar tiger_network.client[11] 	avg_time[11] 	0.000406066435
scalar tiger_network.client[12] 	hdistance[12] 	2.3596404420254
scalar tiger_network.client[12] 	downloads[12] 	12126
scalar tiger_network.client[12] 	avg_time[12] 	0.000723662339
scalar tiger_network.client[13] 	hdistance[13] 	2.6145798459993
scalar tiger_network.client[13] 	downloads[13] 	11948
scalar tiger_network.client[13] 	avg_time[13] 	0.000802888568
scalar tiger_network.client[14] 	hdistance[14] 	2.7723321467009
scalar tiger_network.client[14] 	downloads[14] 	12079
scalar tiger_network.client[14] 	avg_time[14] 	0.000766136739
scalar tiger_network.client[15] 	hdistance[15] 	2.6490644490645
scalar tiger_network.client[15] 	downloads[15] 	12025
scalar tiger_network.client[15] 	avg_time[15] 	0.000666222692
scalar tiger_network.client[16] 	hdistance[16] 	2.6136517615176
scalar tiger_network.client[16] 	downloads[16] 	11808
scalar tiger_network.client[16] 	avg_time[16] 	0.000684712824
scalar tiger_network.client[17] 	hdistance[17] 	2.4567702599712
scalar tiger_network.client[17] 	downloads[17] 	11809
scalar tiger_network.client[17] 	avg_time[17] 	0.000744335774
scalar tiger_network.client[18] 	hdistance[18] 	2.3656108597285
scalar tiger_network.client[18] 	downloads[18] 	12155
scalar tiger_network.client[18] 	avg_time[18] 	0.000513252922
scalar tiger_network.client[19] 	hdistance[19] 	2.3890102503781
scalar tiger_network.client[19] 	downloads[19] 	11902
scalar tiger_network.client[19] 	avg_time[19] 	0.000346146235
scalar tiger_network.client[20] 	hdistance[20] 	2.6662759544541
scalar tiger_network.client[20] 	downloads[20] 	11944
scalar tiger_network.client[20] 	avg_time[20] 	0.000674095133
scalar tiger_network.client[21] 	hdistance[21] 	2.562013578407
scalar tiger_network.client[21] 	downloads[21] 	12078
scalar tiger_network.client[21] 	avg_time[21] 	0.000569607192
