version 2
run General-66-20160826-11:52:20-19693
attr D lcd
attr F nrr
attr R lru
attr a 0.9
attr configname General
attr datetime 20160826-11:52:20
attr experiment General
attr inifile hw5115/scenario_C/omnetp.ini
attr iterationvars "$net=tiger, $rep=8, $a=0.9, $F=nrr, $D=lcd, $R=lru, $window=60, $variance=0.05, $mytime=600"
attr iterationvars2 "$net=tiger, $rep=8, $a=0.9, $F=nrr, $D=lcd, $R=lru, $window=60, $variance=0.05, $mytime=600, $repetition=0"
attr measurement "$net=tiger, $rep=8, $a=0.9, $F=nrr, $D=lcd, $R=lru, $window=60, $variance=0.05, $mytime=600"
attr mytime 600
attr net tiger
attr network networks.${net=tiger}_network
attr processid 19693
attr rep 8
attr repetition 0
attr replication #0
attr resultdir results
attr runnumber 66
attr seedset 8
attr variance 0.05
attr window 60

scalar . 	a 	0.9
scalar . 	mytime 	600
scalar . 	rep 	8
scalar . 	variance 	0.05
scalar . 	window 	60
scalar tiger_network.content_distribution 	repo-0 	4
scalar tiger_network.content_distribution 	repo-1 	15
scalar tiger_network.content_distribution 	repo-2 	12
scalar tiger_network.content_distribution 	repo-3 	18
scalar tiger_network.content_distribution 	repo-4 	8
scalar tiger_network.content_distribution 	repo-5 	20
scalar tiger_network.content_distribution 	repo-6 	5
scalar tiger_network.content_distribution 	repo-7 	1
scalar tiger_network.content_distribution 	repo-8 	7
scalar tiger_network.content_distribution 	repo-9 	3
scalar tiger_network.content_distribution 	repo-10 	13
scalar tiger_network.content_distribution 	repo-11 	16
scalar tiger_network.content_distribution 	repo-12 	9
scalar tiger_network.content_distribution 	repo-13 	21
scalar tiger_network.content_distribution 	repo-14 	0
scalar tiger_network.content_distribution 	repo-15 	10
scalar tiger_network.content_distribution 	client-0 	21
scalar tiger_network.content_distribution 	client-1 	9
scalar tiger_network.content_distribution 	client-2 	6
scalar tiger_network.content_distribution 	client-3 	2
scalar tiger_network.content_distribution 	client-4 	14
scalar tiger_network.content_distribution 	client-5 	8
scalar tiger_network.content_distribution 	client-6 	17
scalar tiger_network.content_distribution 	client-7 	0
scalar tiger_network.content_distribution 	client-8 	19
scalar tiger_network.content_distribution 	client-9 	10
scalar tiger_network.content_distribution 	client-10 	13
scalar tiger_network.content_distribution 	client-11 	1
scalar tiger_network.content_distribution 	client-12 	3
scalar tiger_network.content_distribution 	client-13 	18
scalar tiger_network.content_distribution 	client-14 	15
scalar tiger_network.content_distribution 	client-15 	16
scalar tiger_network.content_distribution 	client-16 	12
scalar tiger_network.content_distribution 	client-17 	11
scalar tiger_network.content_distribution 	client-18 	7
scalar tiger_network.content_distribution 	client-19 	4
scalar tiger_network.content_distribution 	client-20 	5
scalar tiger_network.content_distribution 	client-21 	20
scalar tiger_network.content_distribution 	repo-0_card 	6202
scalar tiger_network.content_distribution 	repo-0_price 	0
scalar tiger_network.content_distribution 	repo-1_card 	6316
scalar tiger_network.content_distribution 	repo-1_price 	0
scalar tiger_network.content_distribution 	repo-2_card 	6112
scalar tiger_network.content_distribution 	repo-2_price 	0
scalar tiger_network.content_distribution 	repo-3_card 	6353
scalar tiger_network.content_distribution 	repo-3_price 	0
scalar tiger_network.content_distribution 	repo-4_card 	6339
scalar tiger_network.content_distribution 	repo-4_price 	0
scalar tiger_network.content_distribution 	repo-5_card 	6224
scalar tiger_network.content_distribution 	repo-5_price 	0
scalar tiger_network.content_distribution 	repo-6_card 	6196
scalar tiger_network.content_distribution 	repo-6_price 	0
scalar tiger_network.content_distribution 	repo-7_card 	6310
scalar tiger_network.content_distribution 	repo-7_price 	0
scalar tiger_network.content_distribution 	repo-8_card 	6324
scalar tiger_network.content_distribution 	repo-8_price 	0
scalar tiger_network.content_distribution 	repo-9_card 	6229
scalar tiger_network.content_distribution 	repo-9_price 	0
scalar tiger_network.content_distribution 	repo-10_card 	6185
scalar tiger_network.content_distribution 	repo-10_price 	0
scalar tiger_network.content_distribution 	repo-11_card 	6137
scalar tiger_network.content_distribution 	repo-11_price 	0
scalar tiger_network.content_distribution 	repo-12_card 	6314
scalar tiger_network.content_distribution 	repo-12_price 	0
scalar tiger_network.content_distribution 	repo-13_card 	6325
scalar tiger_network.content_distribution 	repo-13_price 	0
scalar tiger_network.content_distribution 	repo-14_card 	6117
scalar tiger_network.content_distribution 	repo-14_price 	0
scalar tiger_network.content_distribution 	repo-15_card 	6317
scalar tiger_network.content_distribution 	repo-15_price 	0
scalar tiger_network.statistics 	stabilization_time 	473.8
scalar tiger_network.statistics 	p_hit 	0.14728102113519
scalar tiger_network.statistics 	interests 	35278.772727273
scalar tiger_network.statistics 	data 	23257.863636364
scalar tiger_network.statistics 	hdistance 	2.5497410949956
scalar tiger_network.statistics 	avg_time 	0.000749311412
scalar tiger_network.statistics 	downloads 	264459
scalar tiger_network.statistics 	total_cost 	0
scalar tiger_network.statistics 	total_replicas 	100000
scalar tiger_network.statistics 	inner_hit 	0.38488385723307
scalar tiger_network.node[0].core_layer 	interests[0] 	41199
scalar tiger_network.node[0].core_layer 	repo_load[0] 	10585
scalar tiger_network.node[0].core_layer 	data[0] 	26709
scalar tiger_network.node[0].core_layer 	repo_int[0] 	162673
scalar tiger_network.node[0].content_store 	p_hit[0] 	0.094783853977038
scalar tiger_network.node[0].content_store 	hits[0] 	3905
scalar tiger_network.node[0].content_store 	misses[0] 	37294
scalar tiger_network.node[0].content_store 	decision_yes[0] 	15110
scalar tiger_network.node[0].content_store 	decision_no[0] 	22184
scalar tiger_network.node[0].content_store 	decision_ratio[0] 	0.40515900681075
scalar tiger_network.node[1].core_layer 	interests[1] 	53275
scalar tiger_network.node[1].core_layer 	repo_load[1] 	9636
scalar tiger_network.node[1].core_layer 	data[1] 	40088
scalar tiger_network.node[1].content_store 	p_hit[1] 	0.066635382449554
scalar tiger_network.node[1].content_store 	hits[1] 	3550
scalar tiger_network.node[1].content_store 	misses[1] 	49725
scalar tiger_network.node[1].content_store 	decision_yes[1] 	13169
scalar tiger_network.node[1].content_store 	decision_no[1] 	36555
scalar tiger_network.node[1].content_store 	decision_ratio[1] 	0.26484192743947
scalar tiger_network.node[2].core_layer 	interests[2] 	59014
scalar tiger_network.node[2].core_layer 	data[2] 	51273
scalar tiger_network.node[2].content_store 	p_hit[2] 	0.13115531907683
scalar tiger_network.node[2].content_store 	hits[2] 	7740
scalar tiger_network.node[2].content_store 	misses[2] 	51274
scalar tiger_network.node[2].content_store 	decision_yes[2] 	2475
scalar tiger_network.node[2].content_store 	decision_no[2] 	48798
scalar tiger_network.node[2].content_store 	decision_ratio[2] 	0.048271019835001
scalar tiger_network.node[3].core_layer 	interests[3] 	52554
scalar tiger_network.node[3].core_layer 	repo_load[3] 	10228
scalar tiger_network.node[3].core_layer 	data[3] 	38621
scalar tiger_network.node[3].content_store 	p_hit[3] 	0.070498915401302
scalar tiger_network.node[3].content_store 	hits[3] 	3705
scalar tiger_network.node[3].content_store 	misses[3] 	48849
scalar tiger_network.node[3].content_store 	decision_yes[3] 	14929
scalar tiger_network.node[3].content_store 	decision_no[3] 	33920
scalar tiger_network.node[3].content_store 	decision_ratio[3] 	0.30561526336261
scalar tiger_network.node[4].core_layer 	interests[4] 	38412
scalar tiger_network.node[4].core_layer 	repo_load[4] 	10592
scalar tiger_network.node[4].core_layer 	data[4] 	24367
scalar tiger_network.node[4].content_store 	p_hit[4] 	0.089893783192752
scalar tiger_network.node[4].content_store 	hits[4] 	3453
scalar tiger_network.node[4].content_store 	misses[4] 	34959
scalar tiger_network.node[4].content_store 	decision_yes[4] 	13732
scalar tiger_network.node[4].content_store 	decision_no[4] 	21227
scalar tiger_network.node[4].content_store 	decision_ratio[4] 	0.39280299779742
scalar tiger_network.node[5].core_layer 	interests[5] 	24880
scalar tiger_network.node[5].core_layer 	repo_load[5] 	9474
scalar tiger_network.node[5].core_layer 	data[5] 	12303
scalar tiger_network.node[5].content_store 	p_hit[5] 	0.12471864951768
scalar tiger_network.node[5].content_store 	hits[5] 	3103
scalar tiger_network.node[5].content_store 	misses[5] 	21777
scalar tiger_network.node[5].content_store 	decision_yes[5] 	11316
scalar tiger_network.node[5].content_store 	decision_no[5] 	10461
scalar tiger_network.node[5].content_store 	decision_ratio[5] 	0.51963080314093
scalar tiger_network.node[6].core_layer 	interests[6] 	32162
scalar tiger_network.node[6].core_layer 	data[6] 	25062
scalar tiger_network.node[6].content_store 	p_hit[6] 	0.22075741558361
scalar tiger_network.node[6].content_store 	hits[6] 	7100
scalar tiger_network.node[6].content_store 	misses[6] 	25062
scalar tiger_network.node[6].content_store 	decision_yes[6] 	1590
scalar tiger_network.node[6].content_store 	decision_no[6] 	23472
scalar tiger_network.node[6].content_store 	decision_ratio[6] 	0.06344266219775
scalar tiger_network.node[7].core_layer 	interests[7] 	43123
scalar tiger_network.node[7].core_layer 	repo_load[7] 	10287
scalar tiger_network.node[7].core_layer 	data[7] 	29298
scalar tiger_network.node[7].content_store 	p_hit[7] 	0.082044384667115
scalar tiger_network.node[7].content_store 	hits[7] 	3538
scalar tiger_network.node[7].content_store 	misses[7] 	39585
scalar tiger_network.node[7].content_store 	decision_yes[7] 	13731
scalar tiger_network.node[7].content_store 	decision_no[7] 	25854
scalar tiger_network.node[7].content_store 	decision_ratio[7] 	0.34687381583933
scalar tiger_network.node[8].core_layer 	interests[8] 	53545
scalar tiger_network.node[8].core_layer 	repo_load[8] 	10169
scalar tiger_network.node[8].core_layer 	data[8] 	39502
scalar tiger_network.node[8].content_store 	p_hit[8] 	0.072331683630591
scalar tiger_network.node[8].content_store 	hits[8] 	3873
scalar tiger_network.node[8].content_store 	misses[8] 	49672
scalar tiger_network.node[8].content_store 	decision_yes[8] 	13564
scalar tiger_network.node[8].content_store 	decision_no[8] 	36107
scalar tiger_network.node[8].content_store 	decision_ratio[8] 	0.27307684564434
scalar tiger_network.node[9].core_layer 	interests[9] 	25641
scalar tiger_network.node[9].core_layer 	repo_load[9] 	10481
scalar tiger_network.node[9].core_layer 	data[9] 	11965
scalar tiger_network.node[9].content_store 	p_hit[9] 	0.12460512460512
scalar tiger_network.node[9].content_store 	hits[9] 	3195
scalar tiger_network.node[9].content_store 	misses[9] 	22446
scalar tiger_network.node[9].content_store 	decision_yes[9] 	11803
scalar tiger_network.node[9].content_store 	decision_no[9] 	10643
scalar tiger_network.node[9].content_store 	decision_ratio[9] 	0.52583979328165
scalar tiger_network.node[10].core_layer 	interests[10] 	29860
scalar tiger_network.node[10].core_layer 	repo_load[10] 	10187
scalar tiger_network.node[10].core_layer 	data[10] 	16066
scalar tiger_network.node[10].content_store 	p_hit[10] 	0.1207970529136
scalar tiger_network.node[10].content_store 	hits[10] 	3607
scalar tiger_network.node[10].content_store 	misses[10] 	26253
scalar tiger_network.node[10].content_store 	decision_yes[10] 	12655
scalar tiger_network.node[10].content_store 	decision_no[10] 	13598
scalar tiger_network.node[10].content_store 	decision_ratio[10] 	0.48204014779263
scalar tiger_network.node[11].core_layer 	interests[11] 	23562
scalar tiger_network.node[11].core_layer 	data[11] 	15967
scalar tiger_network.node[11].content_store 	p_hit[11] 	0.32234105763518
scalar tiger_network.node[11].content_store 	hits[11] 	7595
scalar tiger_network.node[11].content_store 	misses[11] 	15967
scalar tiger_network.node[11].content_store 	decision_yes[11] 	896
scalar tiger_network.node[11].content_store 	decision_no[11] 	15071
scalar tiger_network.node[11].content_store 	decision_ratio[11] 	0.056115738711092
scalar tiger_network.node[12].core_layer 	interests[12] 	36513
scalar tiger_network.node[12].core_layer 	repo_load[12] 	10257
scalar tiger_network.node[12].core_layer 	data[12] 	22533
scalar tiger_network.node[12].content_store 	p_hit[12] 	0.10196368416728
scalar tiger_network.node[12].content_store 	hits[12] 	3723
scalar tiger_network.node[12].content_store 	misses[12] 	32790
scalar tiger_network.node[12].content_store 	decision_yes[12] 	13905
scalar tiger_network.node[12].content_store 	decision_no[12] 	18885
scalar tiger_network.node[12].content_store 	decision_ratio[12] 	0.42406221408966
scalar tiger_network.node[13].core_layer 	interests[13] 	24557
scalar tiger_network.node[13].core_layer 	repo_load[13] 	9753
scalar tiger_network.node[13].core_layer 	data[13] 	11918
scalar tiger_network.node[13].content_store 	p_hit[13] 	0.11752249867655
scalar tiger_network.node[13].content_store 	hits[13] 	2886
scalar tiger_network.node[13].content_store 	misses[13] 	21671
scalar tiger_network.node[13].content_store 	decision_yes[13] 	11846
scalar tiger_network.node[13].content_store 	decision_no[13] 	9825
scalar tiger_network.node[13].content_store 	decision_ratio[13] 	0.54662913571132
scalar tiger_network.node[14].core_layer 	interests[14] 	18685
scalar tiger_network.node[14].core_layer 	data[14] 	11347
scalar tiger_network.node[14].content_store 	p_hit[14] 	0.39272143430559
scalar tiger_network.node[14].content_store 	hits[14] 	7338
scalar tiger_network.node[14].content_store 	misses[14] 	11347
scalar tiger_network.node[14].content_store 	decision_yes[14] 	445
scalar tiger_network.node[14].content_store 	decision_no[14] 	10902
scalar tiger_network.node[14].content_store 	decision_ratio[14] 	0.039217414294527
scalar tiger_network.node[15].core_layer 	interests[15] 	26337
scalar tiger_network.node[15].core_layer 	repo_load[15] 	9908
scalar tiger_network.node[15].core_layer 	data[15] 	13319
scalar tiger_network.node[15].content_store 	p_hit[15] 	0.11808482363215
scalar tiger_network.node[15].content_store 	hits[15] 	3110
scalar tiger_network.node[15].content_store 	misses[15] 	23227
scalar tiger_network.node[15].content_store 	decision_yes[15] 	12047
scalar tiger_network.node[15].content_store 	decision_no[15] 	11180
scalar tiger_network.node[15].content_store 	decision_ratio[15] 	0.51866362423042
scalar tiger_network.node[16].core_layer 	interests[16] 	30902
scalar tiger_network.node[16].core_layer 	repo_load[16] 	9844
scalar tiger_network.node[16].core_layer 	data[16] 	17580
scalar tiger_network.node[16].content_store 	p_hit[16] 	0.11254934955666
scalar tiger_network.node[16].content_store 	hits[16] 	3478
scalar tiger_network.node[16].content_store 	misses[16] 	27424
scalar tiger_network.node[16].content_store 	decision_yes[16] 	12528
scalar tiger_network.node[16].content_store 	decision_no[16] 	14896
scalar tiger_network.node[16].content_store 	decision_ratio[16] 	0.45682613768961
scalar tiger_network.node[17].core_layer 	interests[17] 	34284
scalar tiger_network.node[17].core_layer 	data[17] 	26812
scalar tiger_network.node[17].content_store 	p_hit[17] 	0.21794423054486
scalar tiger_network.node[17].content_store 	hits[17] 	7472
scalar tiger_network.node[17].content_store 	misses[17] 	26812
scalar tiger_network.node[17].content_store 	decision_yes[17] 	2159
scalar tiger_network.node[17].content_store 	decision_no[17] 	24653
scalar tiger_network.node[17].content_store 	decision_ratio[17] 	0.080523646128599
scalar tiger_network.node[18].core_layer 	interests[18] 	44935
scalar tiger_network.node[18].core_layer 	repo_load[18] 	10616
scalar tiger_network.node[18].core_layer 	data[18] 	30485
scalar tiger_network.node[18].content_store 	p_hit[18] 	0.08530099031935
scalar tiger_network.node[18].content_store 	hits[18] 	3833
scalar tiger_network.node[18].content_store 	misses[18] 	41102
scalar tiger_network.node[18].content_store 	decision_yes[18] 	14737
scalar tiger_network.node[18].content_store 	decision_no[18] 	26364
scalar tiger_network.node[18].content_store 	decision_ratio[18] 	0.35855575290139
scalar tiger_network.node[19].core_layer 	interests[19] 	26511
scalar tiger_network.node[19].core_layer 	data[19] 	17599
scalar tiger_network.node[19].content_store 	p_hit[19] 	0.33616234770473
scalar tiger_network.node[19].content_store 	hits[19] 	8912
scalar tiger_network.node[19].content_store 	misses[19] 	17599
scalar tiger_network.node[19].content_store 	decision_yes[19] 	1110
scalar tiger_network.node[19].content_store 	decision_no[19] 	16489
scalar tiger_network.node[19].content_store 	decision_ratio[19] 	0.063071765441218
scalar tiger_network.node[20].core_layer 	interests[20] 	27649
scalar tiger_network.node[20].core_layer 	repo_load[20] 	10512
scalar tiger_network.node[20].core_layer 	data[20] 	13825
scalar tiger_network.node[20].content_store 	p_hit[20] 	0.1197873340808
scalar tiger_network.node[20].content_store 	hits[20] 	3312
scalar tiger_network.node[20].content_store 	misses[20] 	24337
scalar tiger_network.node[20].content_store 	decision_yes[20] 	12637
scalar tiger_network.node[20].content_store 	decision_no[20] 	11700
scalar tiger_network.node[20].content_store 	decision_ratio[20] 	0.51925052389366
scalar tiger_network.node[21].core_layer 	interests[21] 	28533
scalar tiger_network.node[21].core_layer 	repo_load[21] 	10144
scalar tiger_network.node[21].core_layer 	data[21] 	15034
scalar tiger_network.node[21].content_store 	p_hit[21] 	0.11758314933586
scalar tiger_network.node[21].content_store 	hits[21] 	3355
scalar tiger_network.node[21].content_store 	misses[21] 	25178
scalar tiger_network.node[21].content_store 	decision_yes[21] 	12623
scalar tiger_network.node[21].content_store 	decision_no[21] 	12555
scalar tiger_network.node[21].content_store 	decision_ratio[21] 	0.50135038525697
scalar tiger_network.client[0] 	hdistance[0] 	2.3869979296066
scalar tiger_network.client[0] 	downloads[0] 	12075
scalar tiger_network.client[0] 	avg_time[0] 	0.000554652382
scalar tiger_network.client[1] 	hdistance[1] 	2.4640202702703
scalar tiger_network.client[1] 	downloads[1] 	11840
scalar tiger_network.client[1] 	avg_time[1] 	0.000851779805
scalar tiger_network.client[2] 	hdistance[2] 	2.2912274877583
scalar tiger_network.client[2] 	downloads[2] 	12049
scalar tiger_network.client[2] 	avg_time[2] 	0.000893878806
scalar tiger_network.client[3] 	hdistance[3] 	2.5267465406682
scalar tiger_network.client[3] 	downloads[3] 	11852
scalar tiger_network.client[3] 	avg_time[3] 	0.001027903569
scalar tiger_network.client[4] 	hdistance[4] 	2.6050779286073
scalar tiger_network.client[4] 	downloads[4] 	11934
scalar tiger_network.client[4] 	avg_time[4] 	0.001068613914
scalar tiger_network.client[5] 	hdistance[5] 	2.7003748438151
scalar tiger_network.client[5] 	downloads[5] 	12005
scalar tiger_network.client[5] 	avg_time[5] 	0.001125423977
scalar tiger_network.client[6] 	hdistance[6] 	2.4343876177658
scalar tiger_network.client[6] 	downloads[6] 	11888
scalar tiger_network.client[6] 	avg_time[6] 	0.000772384986
scalar tiger_network.client[7] 	hdistance[7] 	2.4565416285453
scalar tiger_network.client[7] 	downloads[7] 	12023
scalar tiger_network.client[7] 	avg_time[7] 	0.000793690742
scalar tiger_network.client[8] 	hdistance[8] 	2.4382787838511
scalar tiger_network.client[8] 	downloads[8] 	12038
scalar tiger_network.client[8] 	avg_time[8] 	0.000779876446
scalar tiger_network.client[9] 	hdistance[9] 	2.8165251092603
scalar tiger_network.client[9] 	downloads[9] 	12127
scalar tiger_network.client[9] 	avg_time[9] 	0.00071539321
scalar tiger_network.client[10] 	hdistance[10] 	2.6971871648932
scalar tiger_network.client[10] 	downloads[10] 	12123
scalar tiger_network.client[10] 	avg_time[10] 	0.000784968856
scalar tiger_network.client[11] 	hdistance[11] 	2.536242664683
scalar tiger_network.client[11] 	downloads[11] 	12099
scalar tiger_network.client[11] 	avg_time[11] 	0.000483296095
scalar tiger_network.client[12] 	hdistance[12] 	2.4928701707843
scalar tiger_network.client[12] 	downloads[12] 	12062
scalar tiger_network.client[12] 	avg_time[12] 	0.000824002768
scalar tiger_network.client[13] 	hdistance[13] 	2.7111423608239
scalar tiger_network.client[13] 	downloads[13] 	12089
scalar tiger_network.client[13] 	avg_time[13] 	0.00085388241
scalar tiger_network.client[14] 	hdistance[14] 	2.8261702482092
scalar tiger_network.client[14] 	downloads[14] 	12006
scalar tiger_network.client[14] 	avg_time[14] 	0.000775931364
scalar tiger_network.client[15] 	hdistance[15] 	2.7960898502496
scalar tiger_network.client[15] 	downloads[15] 	12020
scalar tiger_network.client[15] 	avg_time[15] 	0.000773117136
scalar tiger_network.client[16] 	hdistance[16] 	2.598609041232
scalar tiger_network.client[16] 	downloads[16] 	12078
scalar tiger_network.client[16] 	avg_time[16] 	0.000768461792
scalar tiger_network.client[17] 	hdistance[17] 	2.3540097103633
scalar tiger_network.client[17] 	downloads[17] 	11946
scalar tiger_network.client[17] 	avg_time[17] 	0.000649648298
scalar tiger_network.client[18] 	hdistance[18] 	2.3547764824289
scalar tiger_network.client[18] 	downloads[18] 	11923
scalar tiger_network.client[18] 	avg_time[18] 	0.000432850147
scalar tiger_network.client[19] 	hdistance[19] 	2.3301415827809
scalar tiger_network.client[19] 	downloads[19] 	12219
scalar tiger_network.client[19] 	avg_time[19] 	0.000325022401
scalar tiger_network.client[20] 	hdistance[20] 	2.6389802631579
scalar tiger_network.client[20] 	downloads[20] 	12160
scalar tiger_network.client[20] 	avg_time[20] 	0.000626235591
scalar tiger_network.client[21] 	hdistance[21] 	2.6379064101487
scalar tiger_network.client[21] 	downloads[21] 	11903
scalar tiger_network.client[21] 	avg_time[21] 	0.000603836379
