version 2
run General-30-20160826-10:37:28-19693
attr D lcd
attr F nrr
attr R lru
attr a 0.9
attr configname General
attr datetime 20160826-10:37:28
attr experiment General
attr inifile hw5115/scenario_C/omnetp.ini
attr iterationvars "$net=tiger, $rep=4, $a=0.9, $F=nrr, $D=lcd, $R=lru, $window=60, $variance=0.05, $mytime=600"
attr iterationvars2 "$net=tiger, $rep=4, $a=0.9, $F=nrr, $D=lcd, $R=lru, $window=60, $variance=0.05, $mytime=600, $repetition=0"
attr measurement "$net=tiger, $rep=4, $a=0.9, $F=nrr, $D=lcd, $R=lru, $window=60, $variance=0.05, $mytime=600"
attr mytime 600
attr net tiger
attr network networks.${net=tiger}_network
attr processid 19693
attr rep 4
attr repetition 0
attr replication #0
attr resultdir results
attr runnumber 30
attr seedset 4
attr variance 0.05
attr window 60

scalar . 	a 	0.9
scalar . 	mytime 	600
scalar . 	rep 	4
scalar . 	variance 	0.05
scalar . 	window 	60
scalar tiger_network.content_distribution 	repo-0 	18
scalar tiger_network.content_distribution 	repo-1 	16
scalar tiger_network.content_distribution 	repo-2 	10
scalar tiger_network.content_distribution 	repo-3 	6
scalar tiger_network.content_distribution 	repo-4 	2
scalar tiger_network.content_distribution 	repo-5 	20
scalar tiger_network.content_distribution 	repo-6 	12
scalar tiger_network.content_distribution 	repo-7 	3
scalar tiger_network.content_distribution 	repo-8 	14
scalar tiger_network.content_distribution 	repo-9 	5
scalar tiger_network.content_distribution 	repo-10 	13
scalar tiger_network.content_distribution 	repo-11 	9
scalar tiger_network.content_distribution 	repo-12 	11
scalar tiger_network.content_distribution 	repo-13 	0
scalar tiger_network.content_distribution 	repo-14 	19
scalar tiger_network.content_distribution 	repo-15 	21
scalar tiger_network.content_distribution 	client-0 	21
scalar tiger_network.content_distribution 	client-1 	9
scalar tiger_network.content_distribution 	client-2 	6
scalar tiger_network.content_distribution 	client-3 	2
scalar tiger_network.content_distribution 	client-4 	14
scalar tiger_network.content_distribution 	client-5 	8
scalar tiger_network.content_distribution 	client-6 	17
scalar tiger_network.content_distribution 	client-7 	0
scalar tiger_network.content_distribution 	client-8 	19
scalar tiger_network.content_distribution 	client-9 	10
scalar tiger_network.content_distribution 	client-10 	13
scalar tiger_network.content_distribution 	client-11 	1
scalar tiger_network.content_distribution 	client-12 	3
scalar tiger_network.content_distribution 	client-13 	18
scalar tiger_network.content_distribution 	client-14 	15
scalar tiger_network.content_distribution 	client-15 	16
scalar tiger_network.content_distribution 	client-16 	12
scalar tiger_network.content_distribution 	client-17 	11
scalar tiger_network.content_distribution 	client-18 	7
scalar tiger_network.content_distribution 	client-19 	4
scalar tiger_network.content_distribution 	client-20 	5
scalar tiger_network.content_distribution 	client-21 	20
scalar tiger_network.content_distribution 	repo-0_card 	6113
scalar tiger_network.content_distribution 	repo-0_price 	0
scalar tiger_network.content_distribution 	repo-1_card 	6294
scalar tiger_network.content_distribution 	repo-1_price 	0
scalar tiger_network.content_distribution 	repo-2_card 	6315
scalar tiger_network.content_distribution 	repo-2_price 	0
scalar tiger_network.content_distribution 	repo-3_card 	6169
scalar tiger_network.content_distribution 	repo-3_price 	0
scalar tiger_network.content_distribution 	repo-4_card 	6306
scalar tiger_network.content_distribution 	repo-4_price 	0
scalar tiger_network.content_distribution 	repo-5_card 	6221
scalar tiger_network.content_distribution 	repo-5_price 	0
scalar tiger_network.content_distribution 	repo-6_card 	6389
scalar tiger_network.content_distribution 	repo-6_price 	0
scalar tiger_network.content_distribution 	repo-7_card 	6226
scalar tiger_network.content_distribution 	repo-7_price 	0
scalar tiger_network.content_distribution 	repo-8_card 	6293
scalar tiger_network.content_distribution 	repo-8_price 	0
scalar tiger_network.content_distribution 	repo-9_card 	6212
scalar tiger_network.content_distribution 	repo-9_price 	0
scalar tiger_network.content_distribution 	repo-10_card 	6328
scalar tiger_network.content_distribution 	repo-10_price 	0
scalar tiger_network.content_distribution 	repo-11_card 	6234
scalar tiger_network.content_distribution 	repo-11_price 	0
scalar tiger_network.content_distribution 	repo-12_card 	6163
scalar tiger_network.content_distribution 	repo-12_price 	0
scalar tiger_network.content_distribution 	repo-13_card 	6137
scalar tiger_network.content_distribution 	repo-13_price 	0
scalar tiger_network.content_distribution 	repo-14_card 	6292
scalar tiger_network.content_distribution 	repo-14_price 	0
scalar tiger_network.content_distribution 	repo-15_card 	6308
scalar tiger_network.content_distribution 	repo-15_price 	0
scalar tiger_network.statistics 	stabilization_time 	519.1
scalar tiger_network.statistics 	p_hit 	0.1376293551559
scalar tiger_network.statistics 	interests 	35375.636363636
scalar tiger_network.statistics 	data 	23356.681818182
scalar tiger_network.statistics 	hdistance 	2.558858272318
scalar tiger_network.statistics 	avg_time 	0.000712313674
scalar tiger_network.statistics 	downloads 	264417
scalar tiger_network.statistics 	total_cost 	0
scalar tiger_network.statistics 	total_replicas 	100000
scalar tiger_network.statistics 	inner_hit 	0.38456301977558
scalar tiger_network.node[0].core_layer 	interests[0] 	50041
scalar tiger_network.node[0].core_layer 	repo_load[0] 	9985
scalar tiger_network.node[0].core_layer 	data[0] 	35827
scalar tiger_network.node[0].core_layer 	repo_int[0] 	162732
scalar tiger_network.node[0].content_store 	p_hit[0] 	0.084510701224996
scalar tiger_network.node[0].content_store 	hits[0] 	4229
scalar tiger_network.node[0].content_store 	misses[0] 	45812
scalar tiger_network.node[0].content_store 	decision_yes[0] 	13363
scalar tiger_network.node[0].content_store 	decision_no[0] 	32449
scalar tiger_network.node[0].content_store 	decision_ratio[0] 	0.29169213306557
scalar tiger_network.node[1].core_layer 	interests[1] 	44058
scalar tiger_network.node[1].core_layer 	data[1] 	36402
scalar tiger_network.node[1].content_store 	p_hit[1] 	0.17377093830859
scalar tiger_network.node[1].content_store 	hits[1] 	7656
scalar tiger_network.node[1].content_store 	misses[1] 	36402
scalar tiger_network.node[1].content_store 	decision_yes[1] 	2216
scalar tiger_network.node[1].content_store 	decision_no[1] 	34186
scalar tiger_network.node[1].content_store 	decision_ratio[1] 	0.060875776056261
scalar tiger_network.node[2].core_layer 	interests[2] 	58233
scalar tiger_network.node[2].core_layer 	repo_load[2] 	11078
scalar tiger_network.node[2].core_layer 	data[2] 	42849
scalar tiger_network.node[2].content_store 	p_hit[2] 	0.073944327099754
scalar tiger_network.node[2].content_store 	hits[2] 	4306
scalar tiger_network.node[2].content_store 	misses[2] 	53927
scalar tiger_network.node[2].content_store 	decision_yes[2] 	16042
scalar tiger_network.node[2].content_store 	decision_no[2] 	37885
scalar tiger_network.node[2].content_store 	decision_ratio[2] 	0.29747621785006
scalar tiger_network.node[3].core_layer 	interests[3] 	49572
scalar tiger_network.node[3].core_layer 	repo_load[3] 	10488
scalar tiger_network.node[3].core_layer 	data[3] 	35184
scalar tiger_network.node[3].content_store 	p_hit[3] 	0.078673444686517
scalar tiger_network.node[3].content_store 	hits[3] 	3900
scalar tiger_network.node[3].content_store 	misses[3] 	45672
scalar tiger_network.node[3].content_store 	decision_yes[3] 	15440
scalar tiger_network.node[3].content_store 	decision_no[3] 	30232
scalar tiger_network.node[3].content_store 	decision_ratio[3] 	0.3380627080049
scalar tiger_network.node[4].core_layer 	interests[4] 	32364
scalar tiger_network.node[4].core_layer 	data[4] 	25663
scalar tiger_network.node[4].content_store 	p_hit[4] 	0.20705104437029
scalar tiger_network.node[4].content_store 	hits[4] 	6701
scalar tiger_network.node[4].content_store 	misses[4] 	25663
scalar tiger_network.node[4].content_store 	decision_yes[4] 	1784
scalar tiger_network.node[4].content_store 	decision_no[4] 	23879
scalar tiger_network.node[4].content_store 	decision_ratio[4] 	0.069516424424268
scalar tiger_network.node[5].core_layer 	interests[5] 	24510
scalar tiger_network.node[5].core_layer 	repo_load[5] 	9680
scalar tiger_network.node[5].core_layer 	data[5] 	11759
scalar tiger_network.node[5].content_store 	p_hit[5] 	0.12529579763362
scalar tiger_network.node[5].content_store 	hits[5] 	3071
scalar tiger_network.node[5].content_store 	misses[5] 	21439
scalar tiger_network.node[5].content_store 	decision_yes[5] 	11649
scalar tiger_network.node[5].content_store 	decision_no[5] 	9790
scalar tiger_network.node[5].content_store 	decision_ratio[5] 	0.54335556695741
scalar tiger_network.node[6].core_layer 	interests[6] 	34209
scalar tiger_network.node[6].core_layer 	repo_load[6] 	9760
scalar tiger_network.node[6].core_layer 	data[6] 	21058
scalar tiger_network.node[6].content_store 	p_hit[6] 	0.099125961004414
scalar tiger_network.node[6].content_store 	hits[6] 	3391
scalar tiger_network.node[6].content_store 	misses[6] 	30818
scalar tiger_network.node[6].content_store 	decision_yes[6] 	13352
scalar tiger_network.node[6].content_store 	decision_no[6] 	17466
scalar tiger_network.node[6].content_store 	decision_ratio[6] 	0.43325329352976
scalar tiger_network.node[7].core_layer 	interests[7] 	34903
scalar tiger_network.node[7].core_layer 	data[7] 	28103
scalar tiger_network.node[7].content_store 	p_hit[7] 	0.19482565968541
scalar tiger_network.node[7].content_store 	hits[7] 	6800
scalar tiger_network.node[7].content_store 	misses[7] 	28103
scalar tiger_network.node[7].content_store 	decision_yes[7] 	1883
scalar tiger_network.node[7].content_store 	decision_no[7] 	26220
scalar tiger_network.node[7].content_store 	decision_ratio[7] 	0.067003522755578
scalar tiger_network.node[8].core_layer 	interests[8] 	43912
scalar tiger_network.node[8].core_layer 	data[8] 	37049
scalar tiger_network.node[8].content_store 	p_hit[8] 	0.15628985243214
scalar tiger_network.node[8].content_store 	hits[8] 	6863
scalar tiger_network.node[8].content_store 	misses[8] 	37049
scalar tiger_network.node[8].content_store 	decision_yes[8] 	3182
scalar tiger_network.node[8].content_store 	decision_no[8] 	33867
scalar tiger_network.node[8].content_store 	decision_ratio[8] 	0.085886258738427
scalar tiger_network.node[9].core_layer 	interests[9] 	24757
scalar tiger_network.node[9].core_layer 	repo_load[9] 	10035
scalar tiger_network.node[9].core_layer 	data[9] 	11626
scalar tiger_network.node[9].content_store 	p_hit[9] 	0.12505553984732
scalar tiger_network.node[9].content_store 	hits[9] 	3096
scalar tiger_network.node[9].content_store 	misses[9] 	21661
scalar tiger_network.node[9].content_store 	decision_yes[9] 	11523
scalar tiger_network.node[9].content_store 	decision_no[9] 	10138
scalar tiger_network.node[9].content_store 	decision_ratio[9] 	0.53196989981995
scalar tiger_network.node[10].core_layer 	interests[10] 	29464
scalar tiger_network.node[10].core_layer 	repo_load[10] 	10013
scalar tiger_network.node[10].core_layer 	data[10] 	16044
scalar tiger_network.node[10].content_store 	p_hit[10] 	0.11563263643769
scalar tiger_network.node[10].content_store 	hits[10] 	3407
scalar tiger_network.node[10].content_store 	misses[10] 	26057
scalar tiger_network.node[10].content_store 	decision_yes[10] 	12300
scalar tiger_network.node[10].content_store 	decision_no[10] 	13757
scalar tiger_network.node[10].content_store 	decision_ratio[10] 	0.47204206163411
scalar tiger_network.node[11].core_layer 	interests[11] 	30785
scalar tiger_network.node[11].core_layer 	repo_load[11] 	9952
scalar tiger_network.node[11].core_layer 	data[11] 	17332
scalar tiger_network.node[11].content_store 	p_hit[11] 	0.11372421633913
scalar tiger_network.node[11].content_store 	hits[11] 	3501
scalar tiger_network.node[11].content_store 	misses[11] 	27284
scalar tiger_network.node[11].content_store 	decision_yes[11] 	11651
scalar tiger_network.node[11].content_store 	decision_no[11] 	15633
scalar tiger_network.node[11].content_store 	decision_ratio[11] 	0.42702682891072
scalar tiger_network.node[12].core_layer 	interests[12] 	42258
scalar tiger_network.node[12].core_layer 	repo_load[12] 	10866
scalar tiger_network.node[12].core_layer 	data[12] 	27219
scalar tiger_network.node[12].content_store 	p_hit[12] 	0.098750532443561
scalar tiger_network.node[12].content_store 	hits[12] 	4173
scalar tiger_network.node[12].content_store 	misses[12] 	38085
scalar tiger_network.node[12].content_store 	decision_yes[12] 	13439
scalar tiger_network.node[12].content_store 	decision_no[12] 	24646
scalar tiger_network.node[12].content_store 	decision_ratio[12] 	0.3528685834318
scalar tiger_network.node[13].core_layer 	interests[13] 	27965
scalar tiger_network.node[13].core_layer 	repo_load[13] 	10171
scalar tiger_network.node[13].core_layer 	data[13] 	14371
scalar tiger_network.node[13].content_store 	p_hit[13] 	0.12240300375469
scalar tiger_network.node[13].content_store 	hits[13] 	3423
scalar tiger_network.node[13].content_store 	misses[13] 	24542
scalar tiger_network.node[13].content_store 	decision_yes[13] 	11595
scalar tiger_network.node[13].content_store 	decision_no[13] 	12947
scalar tiger_network.node[13].content_store 	decision_ratio[13] 	0.4724553826094
scalar tiger_network.node[14].core_layer 	interests[14] 	25987
scalar tiger_network.node[14].core_layer 	repo_load[14] 	10454
scalar tiger_network.node[14].core_layer 	data[14] 	12167
scalar tiger_network.node[14].content_store 	p_hit[14] 	0.12952630161234
scalar tiger_network.node[14].content_store 	hits[14] 	3366
scalar tiger_network.node[14].content_store 	misses[14] 	22621
scalar tiger_network.node[14].content_store 	decision_yes[14] 	12406
scalar tiger_network.node[14].content_store 	decision_no[14] 	10215
scalar tiger_network.node[14].content_store 	decision_ratio[14] 	0.54842845143893
scalar tiger_network.node[15].core_layer 	interests[15] 	21120
scalar tiger_network.node[15].core_layer 	data[15] 	13839
scalar tiger_network.node[15].content_store 	p_hit[15] 	0.34474431818182
scalar tiger_network.node[15].content_store 	hits[15] 	7281
scalar tiger_network.node[15].content_store 	misses[15] 	13839
scalar tiger_network.node[15].content_store 	decision_yes[15] 	591
scalar tiger_network.node[15].content_store 	decision_no[15] 	13248
scalar tiger_network.node[15].content_store 	decision_ratio[15] 	0.042705397788858
scalar tiger_network.node[16].core_layer 	interests[16] 	29166
scalar tiger_network.node[16].core_layer 	repo_load[16] 	9706
scalar tiger_network.node[16].core_layer 	data[16] 	15928
scalar tiger_network.node[16].content_store 	p_hit[16] 	0.12109991085511
scalar tiger_network.node[16].content_store 	hits[16] 	3532
scalar tiger_network.node[16].content_store 	misses[16] 	25634
scalar tiger_network.node[16].content_store 	decision_yes[16] 	12598
scalar tiger_network.node[16].content_store 	decision_no[16] 	13036
scalar tiger_network.node[16].content_store 	decision_ratio[16] 	0.4914566591246
scalar tiger_network.node[17].core_layer 	interests[17] 	38025
scalar tiger_network.node[17].core_layer 	data[17] 	29798
scalar tiger_network.node[17].content_store 	p_hit[17] 	0.21635765943458
scalar tiger_network.node[17].content_store 	hits[17] 	8227
scalar tiger_network.node[17].content_store 	misses[17] 	29798
scalar tiger_network.node[17].content_store 	decision_yes[17] 	2156
scalar tiger_network.node[17].content_store 	decision_no[17] 	27642
scalar tiger_network.node[17].content_store 	decision_ratio[17] 	0.072353849251628
scalar tiger_network.node[18].core_layer 	interests[18] 	49531
scalar tiger_network.node[18].core_layer 	repo_load[18] 	9823
scalar tiger_network.node[18].core_layer 	data[18] 	35434
scalar tiger_network.node[18].content_store 	p_hit[18] 	0.086269205144253
scalar tiger_network.node[18].content_store 	hits[18] 	4273
scalar tiger_network.node[18].content_store 	misses[18] 	45258
scalar tiger_network.node[18].content_store 	decision_yes[18] 	14080
scalar tiger_network.node[18].content_store 	decision_no[18] 	31177
scalar tiger_network.node[18].content_store 	decision_ratio[18] 	0.31111209315686
scalar tiger_network.node[19].core_layer 	interests[19] 	32295
scalar tiger_network.node[19].core_layer 	repo_load[19] 	10407
scalar tiger_network.node[19].core_layer 	data[19] 	18093
scalar tiger_network.node[19].content_store 	p_hit[19] 	0.11751045053414
scalar tiger_network.node[19].content_store 	hits[19] 	3795
scalar tiger_network.node[19].content_store 	misses[19] 	28500
scalar tiger_network.node[19].content_store 	decision_yes[19] 	12615
scalar tiger_network.node[19].content_store 	decision_no[19] 	15885
scalar tiger_network.node[19].content_store 	decision_ratio[19] 	0.44263157894737
scalar tiger_network.node[20].core_layer 	interests[20] 	26153
scalar tiger_network.node[20].core_layer 	repo_load[20] 	9568
scalar tiger_network.node[20].core_layer 	data[20] 	13305
scalar tiger_network.node[20].content_store 	p_hit[20] 	0.1254158222766
scalar tiger_network.node[20].content_store 	hits[20] 	3280
scalar tiger_network.node[20].content_store 	misses[20] 	22873
scalar tiger_network.node[20].content_store 	decision_yes[20] 	11697
scalar tiger_network.node[20].content_store 	decision_no[20] 	11176
scalar tiger_network.node[20].content_store 	decision_ratio[20] 	0.51138897389936
scalar tiger_network.node[21].core_layer 	interests[21] 	28956
scalar tiger_network.node[21].core_layer 	repo_load[21] 	10746
scalar tiger_network.node[21].core_layer 	data[21] 	14797
scalar tiger_network.node[21].content_store 	p_hit[21] 	0.11786849012295
scalar tiger_network.node[21].content_store 	hits[21] 	3413
scalar tiger_network.node[21].content_store 	misses[21] 	25543
scalar tiger_network.node[21].content_store 	decision_yes[21] 	12883
scalar tiger_network.node[21].content_store 	decision_no[21] 	12660
scalar tiger_network.node[21].content_store 	decision_ratio[21] 	0.50436518811416
scalar tiger_network.client[0] 	hdistance[0] 	2.2632637666583
scalar tiger_network.client[0] 	downloads[0] 	11931
scalar tiger_network.client[0] 	avg_time[0] 	0.000477941863
scalar tiger_network.client[1] 	hdistance[1] 	2.471330180068
scalar tiger_network.client[1] 	downloads[1] 	12051
scalar tiger_network.client[1] 	avg_time[1] 	0.000828836577
scalar tiger_network.client[2] 	hdistance[2] 	2.3662149650703
scalar tiger_network.client[2] 	downloads[2] 	11881
scalar tiger_network.client[2] 	avg_time[2] 	0.000929165626
scalar tiger_network.client[3] 	hdistance[3] 	2.5438131522279
scalar tiger_network.client[3] 	downloads[3] 	12074
scalar tiger_network.client[3] 	avg_time[3] 	0.001005958393
scalar tiger_network.client[4] 	hdistance[4] 	2.5120696806304
scalar tiger_network.client[4] 	downloads[4] 	12055
scalar tiger_network.client[4] 	avg_time[4] 	0.000950261309
scalar tiger_network.client[5] 	hdistance[5] 	2.7628564261226
scalar tiger_network.client[5] 	downloads[5] 	11959
scalar tiger_network.client[5] 	avg_time[5] 	0.001112326827
scalar tiger_network.client[6] 	hdistance[6] 	2.6764633038884
scalar tiger_network.client[6] 	downloads[6] 	12113
scalar tiger_network.client[6] 	avg_time[6] 	0.000778654119
scalar tiger_network.client[7] 	hdistance[7] 	2.5749937400885
scalar tiger_network.client[7] 	downloads[7] 	11981
scalar tiger_network.client[7] 	avg_time[7] 	0.000765341252
scalar tiger_network.client[8] 	hdistance[8] 	2.4572852009147
scalar tiger_network.client[8] 	downloads[8] 	12244
scalar tiger_network.client[8] 	avg_time[8] 	0.000751261045
scalar tiger_network.client[9] 	hdistance[9] 	2.8209105391129
scalar tiger_network.client[9] 	downloads[9] 	11927
scalar tiger_network.client[9] 	avg_time[9] 	0.000687417498
scalar tiger_network.client[10] 	hdistance[10] 	2.7148008523193
scalar tiger_network.client[10] 	downloads[10] 	12202
scalar tiger_network.client[10] 	avg_time[10] 	0.000762224616
scalar tiger_network.client[11] 	hdistance[11] 	2.4873318478171
scalar tiger_network.client[11] 	downloads[11] 	12117
scalar tiger_network.client[11] 	avg_time[11] 	0.000376479268
scalar tiger_network.client[12] 	hdistance[12] 	2.3589701270837
scalar tiger_network.client[12] 	downloads[12] 	12118
scalar tiger_network.client[12] 	avg_time[12] 	0.000661906359
scalar tiger_network.client[13] 	hdistance[13] 	2.6184264839429
scalar tiger_network.client[13] 	downloads[13] 	12113
scalar tiger_network.client[13] 	avg_time[13] 	0.000690304733
scalar tiger_network.client[14] 	hdistance[14] 	2.7950688170227
scalar tiger_network.client[14] 	downloads[14] 	11843
scalar tiger_network.client[14] 	avg_time[14] 	0.000669812497
scalar tiger_network.client[15] 	hdistance[15] 	2.7137012607498
scalar tiger_network.client[15] 	downloads[15] 	11977
scalar tiger_network.client[15] 	avg_time[15] 	0.000680123092
scalar tiger_network.client[16] 	hdistance[16] 	2.6804605372935
scalar tiger_network.client[16] 	downloads[16] 	11986
scalar tiger_network.client[16] 	avg_time[16] 	0.000693425287
scalar tiger_network.client[17] 	hdistance[17] 	2.3717798594848
scalar tiger_network.client[17] 	downloads[17] 	11956
scalar tiger_network.client[17] 	avg_time[17] 	0.000643008224
scalar tiger_network.client[18] 	hdistance[18] 	2.2978687978688
scalar tiger_network.client[18] 	downloads[18] 	12012
scalar tiger_network.client[18] 	avg_time[18] 	0.000463088759
scalar tiger_network.client[19] 	hdistance[19] 	2.4288595680309
scalar tiger_network.client[19] 	downloads[19] 	11899
scalar tiger_network.client[19] 	avg_time[19] 	0.000406369039
scalar tiger_network.client[20] 	hdistance[20] 	2.7174947807933
scalar tiger_network.client[20] 	downloads[20] 	11975
scalar tiger_network.client[20] 	avg_time[20] 	0.000682859811
scalar tiger_network.client[21] 	hdistance[21] 	2.6609181038074
scalar tiger_network.client[21] 	downloads[21] 	12003
scalar tiger_network.client[21] 	avg_time[21] 	0.000654134646
