version 2
run General-21-20160826-10:19:00-19693
attr D lcd
attr F nrr
attr R lru
attr a 0.9
attr configname General
attr datetime 20160826-10:19:00
attr experiment General
attr inifile hw5115/scenario_C/omnetp.ini
attr iterationvars "$net=tiger, $rep=3, $a=0.9, $F=nrr, $D=lcd, $R=lru, $window=60, $variance=0.05, $mytime=600"
attr iterationvars2 "$net=tiger, $rep=3, $a=0.9, $F=nrr, $D=lcd, $R=lru, $window=60, $variance=0.05, $mytime=600, $repetition=0"
attr measurement "$net=tiger, $rep=3, $a=0.9, $F=nrr, $D=lcd, $R=lru, $window=60, $variance=0.05, $mytime=600"
attr mytime 600
attr net tiger
attr network networks.${net=tiger}_network
attr processid 19693
attr rep 3
attr repetition 0
attr replication #0
attr resultdir results
attr runnumber 21
attr seedset 3
attr variance 0.05
attr window 60

scalar . 	a 	0.9
scalar . 	mytime 	600
scalar . 	rep 	3
scalar . 	variance 	0.05
scalar . 	window 	60
scalar tiger_network.content_distribution 	repo-0 	9
scalar tiger_network.content_distribution 	repo-1 	4
scalar tiger_network.content_distribution 	repo-2 	15
scalar tiger_network.content_distribution 	repo-3 	0
scalar tiger_network.content_distribution 	repo-4 	17
scalar tiger_network.content_distribution 	repo-5 	16
scalar tiger_network.content_distribution 	repo-6 	8
scalar tiger_network.content_distribution 	repo-7 	10
scalar tiger_network.content_distribution 	repo-8 	19
scalar tiger_network.content_distribution 	repo-9 	11
scalar tiger_network.content_distribution 	repo-10 	1
scalar tiger_network.content_distribution 	repo-11 	14
scalar tiger_network.content_distribution 	repo-12 	13
scalar tiger_network.content_distribution 	repo-13 	5
scalar tiger_network.content_distribution 	repo-14 	12
scalar tiger_network.content_distribution 	repo-15 	18
scalar tiger_network.content_distribution 	client-0 	21
scalar tiger_network.content_distribution 	client-1 	9
scalar tiger_network.content_distribution 	client-2 	6
scalar tiger_network.content_distribution 	client-3 	2
scalar tiger_network.content_distribution 	client-4 	14
scalar tiger_network.content_distribution 	client-5 	8
scalar tiger_network.content_distribution 	client-6 	17
scalar tiger_network.content_distribution 	client-7 	0
scalar tiger_network.content_distribution 	client-8 	19
scalar tiger_network.content_distribution 	client-9 	10
scalar tiger_network.content_distribution 	client-10 	13
scalar tiger_network.content_distribution 	client-11 	1
scalar tiger_network.content_distribution 	client-12 	3
scalar tiger_network.content_distribution 	client-13 	18
scalar tiger_network.content_distribution 	client-14 	15
scalar tiger_network.content_distribution 	client-15 	16
scalar tiger_network.content_distribution 	client-16 	12
scalar tiger_network.content_distribution 	client-17 	11
scalar tiger_network.content_distribution 	client-18 	7
scalar tiger_network.content_distribution 	client-19 	4
scalar tiger_network.content_distribution 	client-20 	5
scalar tiger_network.content_distribution 	client-21 	20
scalar tiger_network.content_distribution 	repo-0_card 	6259
scalar tiger_network.content_distribution 	repo-0_price 	0
scalar tiger_network.content_distribution 	repo-1_card 	6295
scalar tiger_network.content_distribution 	repo-1_price 	0
scalar tiger_network.content_distribution 	repo-2_card 	6227
scalar tiger_network.content_distribution 	repo-2_price 	0
scalar tiger_network.content_distribution 	repo-3_card 	6346
scalar tiger_network.content_distribution 	repo-3_price 	0
scalar tiger_network.content_distribution 	repo-4_card 	6235
scalar tiger_network.content_distribution 	repo-4_price 	0
scalar tiger_network.content_distribution 	repo-5_card 	6255
scalar tiger_network.content_distribution 	repo-5_price 	0
scalar tiger_network.content_distribution 	repo-6_card 	6210
scalar tiger_network.content_distribution 	repo-6_price 	0
scalar tiger_network.content_distribution 	repo-7_card 	6205
scalar tiger_network.content_distribution 	repo-7_price 	0
scalar tiger_network.content_distribution 	repo-8_card 	6107
scalar tiger_network.content_distribution 	repo-8_price 	0
scalar tiger_network.content_distribution 	repo-9_card 	6254
scalar tiger_network.content_distribution 	repo-9_price 	0
scalar tiger_network.content_distribution 	repo-10_card 	6251
scalar tiger_network.content_distribution 	repo-10_price 	0
scalar tiger_network.content_distribution 	repo-11_card 	6302
scalar tiger_network.content_distribution 	repo-11_price 	0
scalar tiger_network.content_distribution 	repo-12_card 	6401
scalar tiger_network.content_distribution 	repo-12_price 	0
scalar tiger_network.content_distribution 	repo-13_card 	6212
scalar tiger_network.content_distribution 	repo-13_price 	0
scalar tiger_network.content_distribution 	repo-14_card 	6236
scalar tiger_network.content_distribution 	repo-14_price 	0
scalar tiger_network.content_distribution 	repo-15_card 	6205
scalar tiger_network.content_distribution 	repo-15_price 	0
scalar tiger_network.statistics 	stabilization_time 	446.2
scalar tiger_network.statistics 	p_hit 	0.14408973253042
scalar tiger_network.statistics 	interests 	35239.863636364
scalar tiger_network.statistics 	data 	23222.545454545
scalar tiger_network.statistics 	hdistance 	2.5477752553458
scalar tiger_network.statistics 	avg_time 	0.000720993717
scalar tiger_network.statistics 	downloads 	264382
scalar tiger_network.statistics 	total_cost 	0
scalar tiger_network.statistics 	total_replicas 	100000
scalar tiger_network.statistics 	inner_hit 	0.38461014743818
scalar tiger_network.node[0].core_layer 	interests[0] 	48381
scalar tiger_network.node[0].core_layer 	repo_load[0] 	10367
scalar tiger_network.node[0].core_layer 	data[0] 	34056
scalar tiger_network.node[0].core_layer 	repo_int[0] 	162698
scalar tiger_network.node[0].content_store 	p_hit[0] 	0.081767636055476
scalar tiger_network.node[0].content_store 	hits[0] 	3956
scalar tiger_network.node[0].content_store 	misses[0] 	44425
scalar tiger_network.node[0].content_store 	decision_yes[0] 	13898
scalar tiger_network.node[0].content_store 	decision_no[0] 	30525
scalar tiger_network.node[0].content_store 	decision_ratio[0] 	0.31285595299732
scalar tiger_network.node[1].core_layer 	interests[1] 	49403
scalar tiger_network.node[1].core_layer 	repo_load[1] 	10241
scalar tiger_network.node[1].core_layer 	data[1] 	35338
scalar tiger_network.node[1].content_store 	p_hit[1] 	0.077424447908022
scalar tiger_network.node[1].content_store 	hits[1] 	3825
scalar tiger_network.node[1].content_store 	misses[1] 	45578
scalar tiger_network.node[1].content_store 	decision_yes[1] 	14074
scalar tiger_network.node[1].content_store 	decision_no[1] 	31505
scalar tiger_network.node[1].content_store 	decision_ratio[1] 	0.30878255336888
scalar tiger_network.node[2].core_layer 	interests[2] 	57855
scalar tiger_network.node[2].core_layer 	data[2] 	49532
scalar tiger_network.node[2].content_store 	p_hit[2] 	0.14387693371359
scalar tiger_network.node[2].content_store 	hits[2] 	8324
scalar tiger_network.node[2].content_store 	misses[2] 	49531
scalar tiger_network.node[2].content_store 	decision_yes[2] 	2921
scalar tiger_network.node[2].content_store 	decision_no[2] 	46611
scalar tiger_network.node[2].content_store 	decision_ratio[2] 	0.058971977711378
scalar tiger_network.node[3].core_layer 	interests[3] 	51701
scalar tiger_network.node[3].core_layer 	data[3] 	44256
scalar tiger_network.node[3].content_store 	p_hit[3] 	0.14402042513684
scalar tiger_network.node[3].content_store 	hits[3] 	7446
scalar tiger_network.node[3].content_store 	misses[3] 	44255
scalar tiger_network.node[3].content_store 	decision_yes[3] 	2811
scalar tiger_network.node[3].content_store 	decision_no[3] 	41445
scalar tiger_network.node[3].content_store 	decision_ratio[3] 	0.063516811279826
scalar tiger_network.node[4].core_layer 	interests[4] 	39193
scalar tiger_network.node[4].core_layer 	repo_load[4] 	10334
scalar tiger_network.node[4].core_layer 	data[4] 	25194
scalar tiger_network.node[4].content_store 	p_hit[4] 	0.093511596458551
scalar tiger_network.node[4].content_store 	hits[4] 	3665
scalar tiger_network.node[4].content_store 	misses[4] 	35528
scalar tiger_network.node[4].content_store 	decision_yes[4] 	13724
scalar tiger_network.node[4].content_store 	decision_no[4] 	21804
scalar tiger_network.node[4].content_store 	decision_ratio[4] 	0.38628687232605
scalar tiger_network.node[5].core_layer 	interests[5] 	23951
scalar tiger_network.node[5].core_layer 	repo_load[5] 	9408
scalar tiger_network.node[5].core_layer 	data[5] 	11125
scalar tiger_network.node[5].content_store 	p_hit[5] 	0.14270802889232
scalar tiger_network.node[5].content_store 	hits[5] 	3418
scalar tiger_network.node[5].content_store 	misses[5] 	20533
scalar tiger_network.node[5].content_store 	decision_yes[5] 	11469
scalar tiger_network.node[5].content_store 	decision_no[5] 	9064
scalar tiger_network.node[5].content_store 	decision_ratio[5] 	0.55856426240686
scalar tiger_network.node[6].core_layer 	interests[6] 	28290
scalar tiger_network.node[6].core_layer 	data[6] 	21127
scalar tiger_network.node[6].content_store 	p_hit[6] 	0.2531636620714
scalar tiger_network.node[6].content_store 	hits[6] 	7162
scalar tiger_network.node[6].content_store 	misses[6] 	21128
scalar tiger_network.node[6].content_store 	decision_yes[6] 	1871
scalar tiger_network.node[6].content_store 	decision_no[6] 	19256
scalar tiger_network.node[6].content_store 	decision_ratio[6] 	0.088559662990486
scalar tiger_network.node[7].core_layer 	interests[7] 	29112
scalar tiger_network.node[7].core_layer 	data[7] 	22951
scalar tiger_network.node[7].content_store 	p_hit[7] 	0.21163094256664
scalar tiger_network.node[7].content_store 	hits[7] 	6161
scalar tiger_network.node[7].content_store 	misses[7] 	22951
scalar tiger_network.node[7].content_store 	decision_yes[7] 	1980
scalar tiger_network.node[7].content_store 	decision_no[7] 	20971
scalar tiger_network.node[7].content_store 	decision_ratio[7] 	0.086270750729816
scalar tiger_network.node[8].core_layer 	interests[8] 	44433
scalar tiger_network.node[8].core_layer 	repo_load[8] 	10190
scalar tiger_network.node[8].core_layer 	data[8] 	30212
scalar tiger_network.node[8].content_store 	p_hit[8] 	0.090698354826368
scalar tiger_network.node[8].content_store 	hits[8] 	4030
scalar tiger_network.node[8].content_store 	misses[8] 	40403
scalar tiger_network.node[8].content_store 	decision_yes[8] 	15040
scalar tiger_network.node[8].content_store 	decision_no[8] 	25362
scalar tiger_network.node[8].content_store 	decision_ratio[8] 	0.37225879906935
scalar tiger_network.node[9].core_layer 	interests[9] 	24643
scalar tiger_network.node[9].core_layer 	repo_load[9] 	10110
scalar tiger_network.node[9].core_layer 	data[9] 	11118
scalar tiger_network.node[9].content_store 	p_hit[9] 	0.13857890678895
scalar tiger_network.node[9].content_store 	hits[9] 	3415
scalar tiger_network.node[9].content_store 	misses[9] 	21228
scalar tiger_network.node[9].content_store 	decision_yes[9] 	12181
scalar tiger_network.node[9].content_store 	decision_no[9] 	9047
scalar tiger_network.node[9].content_store 	decision_ratio[9] 	0.57381759939702
scalar tiger_network.node[10].core_layer 	interests[10] 	30218
scalar tiger_network.node[10].core_layer 	repo_load[10] 	10559
scalar tiger_network.node[10].core_layer 	data[10] 	16298
scalar tiger_network.node[10].content_store 	p_hit[10] 	0.11122509762393
scalar tiger_network.node[10].content_store 	hits[10] 	3361
scalar tiger_network.node[10].content_store 	misses[10] 	26857
scalar tiger_network.node[10].content_store 	decision_yes[10] 	12201
scalar tiger_network.node[10].content_store 	decision_no[10] 	14656
scalar tiger_network.node[10].content_store 	decision_ratio[10] 	0.45429496965409
scalar tiger_network.node[11].core_layer 	interests[11] 	31954
scalar tiger_network.node[11].core_layer 	repo_load[11] 	10929
scalar tiger_network.node[11].core_layer 	data[11] 	17599
scalar tiger_network.node[11].content_store 	p_hit[11] 	0.10721662389685
scalar tiger_network.node[11].content_store 	hits[11] 	3426
scalar tiger_network.node[11].content_store 	misses[11] 	28528
scalar tiger_network.node[11].content_store 	decision_yes[11] 	12629
scalar tiger_network.node[11].content_store 	decision_no[11] 	15899
scalar tiger_network.node[11].content_store 	decision_ratio[11] 	0.44268788558609
scalar tiger_network.node[12].core_layer 	interests[12] 	40975
scalar tiger_network.node[12].core_layer 	repo_load[12] 	10466
scalar tiger_network.node[12].core_layer 	data[12] 	26326
scalar tiger_network.node[12].content_store 	p_hit[12] 	0.10206223306894
scalar tiger_network.node[12].content_store 	hits[12] 	4182
scalar tiger_network.node[12].content_store 	misses[12] 	36793
scalar tiger_network.node[12].content_store 	decision_yes[12] 	13739
scalar tiger_network.node[12].content_store 	decision_no[12] 	23053
scalar tiger_network.node[12].content_store 	decision_ratio[12] 	0.37342357034138
scalar tiger_network.node[13].core_layer 	interests[13] 	27343
scalar tiger_network.node[13].core_layer 	repo_load[13] 	9998
scalar tiger_network.node[13].core_layer 	data[13] 	14198
scalar tiger_network.node[13].content_store 	p_hit[13] 	0.115093442563
scalar tiger_network.node[13].content_store 	hits[13] 	3147
scalar tiger_network.node[13].content_store 	misses[13] 	24196
scalar tiger_network.node[13].content_store 	decision_yes[13] 	11654
scalar tiger_network.node[13].content_store 	decision_no[13] 	12542
scalar tiger_network.node[13].content_store 	decision_ratio[13] 	0.48164985948091
scalar tiger_network.node[14].core_layer 	interests[14] 	25109
scalar tiger_network.node[14].core_layer 	repo_load[14] 	9750
scalar tiger_network.node[14].core_layer 	data[14] 	12285
scalar tiger_network.node[14].content_store 	p_hit[14] 	0.1224262216735
scalar tiger_network.node[14].content_store 	hits[14] 	3074
scalar tiger_network.node[14].content_store 	misses[14] 	22035
scalar tiger_network.node[14].content_store 	decision_yes[14] 	11290
scalar tiger_network.node[14].content_store 	decision_no[14] 	10745
scalar tiger_network.node[14].content_store 	decision_ratio[14] 	0.51236668935784
scalar tiger_network.node[15].core_layer 	interests[15] 	27426
scalar tiger_network.node[15].core_layer 	repo_load[15] 	10254
scalar tiger_network.node[15].core_layer 	data[15] 	13839
scalar tiger_network.node[15].content_store 	p_hit[15] 	0.12156347990957
scalar tiger_network.node[15].content_store 	hits[15] 	3334
scalar tiger_network.node[15].content_store 	misses[15] 	24092
scalar tiger_network.node[15].content_store 	decision_yes[15] 	12139
scalar tiger_network.node[15].content_store 	decision_no[15] 	11954
scalar tiger_network.node[15].content_store 	decision_ratio[15] 	0.50383928942016
scalar tiger_network.node[16].core_layer 	interests[16] 	31659
scalar tiger_network.node[16].core_layer 	repo_load[16] 	10158
scalar tiger_network.node[16].core_layer 	data[16] 	17637
scalar tiger_network.node[16].content_store 	p_hit[16] 	0.12201901512998
scalar tiger_network.node[16].content_store 	hits[16] 	3863
scalar tiger_network.node[16].content_store 	misses[16] 	27796
scalar tiger_network.node[16].content_store 	decision_yes[16] 	12990
scalar tiger_network.node[16].content_store 	decision_no[16] 	14805
scalar tiger_network.node[16].content_store 	decision_ratio[16] 	0.46735024284943
scalar tiger_network.node[17].core_layer 	interests[17] 	43724
scalar tiger_network.node[17].core_layer 	repo_load[17] 	9971
scalar tiger_network.node[17].core_layer 	data[17] 	29947
scalar tiger_network.node[17].content_store 	p_hit[17] 	0.087068886652639
scalar tiger_network.node[17].content_store 	hits[17] 	3807
scalar tiger_network.node[17].content_store 	misses[17] 	39917
scalar tiger_network.node[17].content_store 	decision_yes[17] 	13093
scalar tiger_network.node[17].content_store 	decision_no[17] 	26825
scalar tiger_network.node[17].content_store 	decision_ratio[17] 	0.32799739465905
scalar tiger_network.node[18].core_layer 	interests[18] 	48844
scalar tiger_network.node[18].core_layer 	repo_load[18] 	10018
scalar tiger_network.node[18].core_layer 	data[18] 	34880
scalar tiger_network.node[18].content_store 	p_hit[18] 	0.080808287609532
scalar tiger_network.node[18].content_store 	hits[18] 	3947
scalar tiger_network.node[18].content_store 	misses[18] 	44897
scalar tiger_network.node[18].content_store 	decision_yes[18] 	13922
scalar tiger_network.node[18].content_store 	decision_no[18] 	30976
scalar tiger_network.node[18].content_store 	decision_ratio[18] 	0.31008062719943
scalar tiger_network.node[19].core_layer 	interests[19] 	29792
scalar tiger_network.node[19].core_layer 	repo_load[19] 	9945
scalar tiger_network.node[19].core_layer 	data[19] 	16016
scalar tiger_network.node[19].content_store 	p_hit[19] 	0.12859156820623
scalar tiger_network.node[19].content_store 	hits[19] 	3831
scalar tiger_network.node[19].content_store 	misses[19] 	25961
scalar tiger_network.node[19].content_store 	decision_yes[19] 	12913
scalar tiger_network.node[19].content_store 	decision_no[19] 	13048
scalar tiger_network.node[19].content_store 	decision_ratio[19] 	0.49739994607296
scalar tiger_network.node[20].core_layer 	interests[20] 	18867
scalar tiger_network.node[20].core_layer 	data[20] 	12194
scalar tiger_network.node[20].content_store 	p_hit[20] 	0.3536863306302
scalar tiger_network.node[20].content_store 	hits[20] 	6673
scalar tiger_network.node[20].content_store 	misses[20] 	12194
scalar tiger_network.node[20].content_store 	decision_yes[20] 	815
scalar tiger_network.node[20].content_store 	decision_no[20] 	11379
scalar tiger_network.node[20].content_store 	decision_ratio[20] 	0.066836148925701
scalar tiger_network.node[21].core_layer 	interests[21] 	22404
scalar tiger_network.node[21].core_layer 	data[21] 	14768
scalar tiger_network.node[21].content_store 	p_hit[21] 	0.34083199428673
scalar tiger_network.node[21].content_store 	hits[21] 	7636
scalar tiger_network.node[21].content_store 	misses[21] 	14768
scalar tiger_network.node[21].content_store 	decision_yes[21] 	624
scalar tiger_network.node[21].content_store 	decision_no[21] 	14144
scalar tiger_network.node[21].content_store 	decision_ratio[21] 	0.042253521126761
scalar tiger_network.client[0] 	hdistance[0] 	2.3338359721873
scalar tiger_network.client[0] 	downloads[0] 	11937
scalar tiger_network.client[0] 	avg_time[0] 	0.000532082592
scalar tiger_network.client[1] 	hdistance[1] 	2.5334665334665
scalar tiger_network.client[1] 	downloads[1] 	12012
scalar tiger_network.client[1] 	avg_time[1] 	0.000903960681
scalar tiger_network.client[2] 	hdistance[2] 	2.2374118418894
scalar tiger_network.client[2] 	downloads[2] 	12194
scalar tiger_network.client[2] 	avg_time[2] 	0.00087498563
scalar tiger_network.client[3] 	hdistance[3] 	2.3836410298866
scalar tiger_network.client[3] 	downloads[3] 	12079
scalar tiger_network.client[3] 	avg_time[3] 	0.000959020563
scalar tiger_network.client[4] 	hdistance[4] 	2.5841160684334
scalar tiger_network.client[4] 	downloads[4] 	11924
scalar tiger_network.client[4] 	avg_time[4] 	0.00106884756
scalar tiger_network.client[5] 	hdistance[5] 	2.6984220740866
scalar tiger_network.client[5] 	downloads[5] 	11851
scalar tiger_network.client[5] 	avg_time[5] 	0.001066002958
scalar tiger_network.client[6] 	hdistance[6] 	2.5194456110878
scalar tiger_network.client[6] 	downloads[6] 	11905
scalar tiger_network.client[6] 	avg_time[6] 	0.000674232543
scalar tiger_network.client[7] 	hdistance[7] 	2.5390278591149
scalar tiger_network.client[7] 	downloads[7] 	11953
scalar tiger_network.client[7] 	avg_time[7] 	0.000751385141
scalar tiger_network.client[8] 	hdistance[8] 	2.540250593727
scalar tiger_network.client[8] 	downloads[8] 	12211
scalar tiger_network.client[8] 	avg_time[8] 	0.000796849129
scalar tiger_network.client[9] 	hdistance[9] 	2.8513278729213
scalar tiger_network.client[9] 	downloads[9] 	12087
scalar tiger_network.client[9] 	avg_time[9] 	0.000728443081
scalar tiger_network.client[10] 	hdistance[10] 	2.7331075499752
scalar tiger_network.client[10] 	downloads[10] 	12106
scalar tiger_network.client[10] 	avg_time[10] 	0.000747691171
scalar tiger_network.client[11] 	hdistance[11] 	2.5352911730352
scalar tiger_network.client[11] 	downloads[11] 	11986
scalar tiger_network.client[11] 	avg_time[11] 	0.000447574008
scalar tiger_network.client[12] 	hdistance[12] 	2.3780102972928
scalar tiger_network.client[12] 	downloads[12] 	12042
scalar tiger_network.client[12] 	avg_time[12] 	0.000743267933
scalar tiger_network.client[13] 	hdistance[13] 	2.5839688328912
scalar tiger_network.client[13] 	downloads[13] 	12064
scalar tiger_network.client[13] 	avg_time[13] 	0.000776266357
scalar tiger_network.client[14] 	hdistance[14] 	2.761316872428
scalar tiger_network.client[14] 	downloads[14] 	11907
scalar tiger_network.client[14] 	avg_time[14] 	0.000743868875
scalar tiger_network.client[15] 	hdistance[15] 	2.7135954135954
scalar tiger_network.client[15] 	downloads[15] 	12210
scalar tiger_network.client[15] 	avg_time[15] 	0.000689960732
scalar tiger_network.client[16] 	hdistance[16] 	2.5819101309899
scalar tiger_network.client[16] 	downloads[16] 	12062
scalar tiger_network.client[16] 	avg_time[16] 	0.000629953712
scalar tiger_network.client[17] 	hdistance[17] 	2.4484462685317
scalar tiger_network.client[17] 	downloads[17] 	11939
scalar tiger_network.client[17] 	avg_time[17] 	0.000700302269
scalar tiger_network.client[18] 	hdistance[18] 	2.3684474542262
scalar tiger_network.client[18] 	downloads[18] 	11961
scalar tiger_network.client[18] 	avg_time[18] 	0.000470352119
scalar tiger_network.client[19] 	hdistance[19] 	2.4155658392932
scalar tiger_network.client[19] 	downloads[19] 	11885
scalar tiger_network.client[19] 	avg_time[19] 	0.000293750732
scalar tiger_network.client[20] 	hdistance[20] 	2.6496973716939
scalar tiger_network.client[20] 	downloads[20] 	12061
scalar tiger_network.client[20] 	avg_time[20] 	0.000656237751
scalar tiger_network.client[21] 	hdistance[21] 	2.6607529568549
scalar tiger_network.client[21] 	downloads[21] 	12006
scalar tiger_network.client[21] 	avg_time[21] 	0.000606826251
