version 2
run General-60-20160820-07:40:21-856
attr a 0.9
attr cd lcd
attr configname General
attr cr lru
attr datetime 20160820-07:40:21
attr experiment General
attr fsize 1
attr inifile hw5115/scenario_A/SPR-LCD.ini
attr iterationvars "$name=tree_4_3, $un=03, $rep=1, $cd=lcd, $cr=lru, $fsize=1, $a=0.9, $sl=spr, $ttl=1000, $variance=0.05"
attr iterationvars2 "$name=tree_4_3, $un=03, $rep=1, $cd=lcd, $cr=lru, $fsize=1, $a=0.9, $sl=spr, $ttl=1000, $variance=0.05, $repetition=0"
attr measurement "$name=tree_4_3, $un=03, $rep=1, $cd=lcd, $cr=lru, $fsize=1, $a=0.9, $sl=spr, $ttl=1000, $variance=0.05"
attr name tree_4_3
attr network networks.${name}_u${un}_r${rep}_network
attr processid 856
attr rep 1
attr repetition 0
attr replication #0
attr resultdir results
attr runnumber 60
attr seedset 1
attr sl spr
attr ttl 1000
attr un 03
attr variance 0.05

scalar . 	a 	0.9
scalar . 	fsize 	1
scalar . 	rep 	1
scalar . 	ttl 	1000
scalar . 	un 	03
scalar . 	variance 	0.05
scalar tree_4_3_u03_r1_network.content_distribution 	repo-0 	0
scalar tree_4_3_u03_r1_network.content_distribution 	client-0 	13
scalar tree_4_3_u03_r1_network.content_distribution 	client-1 	14
scalar tree_4_3_u03_r1_network.content_distribution 	client-2 	15
scalar tree_4_3_u03_r1_network.content_distribution 	client-3 	16
scalar tree_4_3_u03_r1_network.content_distribution 	client-4 	17
scalar tree_4_3_u03_r1_network.content_distribution 	client-5 	18
scalar tree_4_3_u03_r1_network.content_distribution 	client-6 	19
scalar tree_4_3_u03_r1_network.content_distribution 	client-7 	20
scalar tree_4_3_u03_r1_network.content_distribution 	client-8 	21
scalar tree_4_3_u03_r1_network.content_distribution 	client-9 	22
scalar tree_4_3_u03_r1_network.content_distribution 	client-10 	23
scalar tree_4_3_u03_r1_network.content_distribution 	client-11 	24
scalar tree_4_3_u03_r1_network.content_distribution 	client-12 	25
scalar tree_4_3_u03_r1_network.content_distribution 	client-13 	26
scalar tree_4_3_u03_r1_network.content_distribution 	client-14 	27
scalar tree_4_3_u03_r1_network.content_distribution 	client-15 	28
scalar tree_4_3_u03_r1_network.content_distribution 	client-16 	29
scalar tree_4_3_u03_r1_network.content_distribution 	client-17 	30
scalar tree_4_3_u03_r1_network.content_distribution 	client-18 	31
scalar tree_4_3_u03_r1_network.content_distribution 	client-19 	32
scalar tree_4_3_u03_r1_network.content_distribution 	client-20 	33
scalar tree_4_3_u03_r1_network.content_distribution 	client-21 	34
scalar tree_4_3_u03_r1_network.content_distribution 	client-22 	35
scalar tree_4_3_u03_r1_network.content_distribution 	client-23 	36
scalar tree_4_3_u03_r1_network.content_distribution 	client-24 	37
scalar tree_4_3_u03_r1_network.content_distribution 	client-25 	38
scalar tree_4_3_u03_r1_network.content_distribution 	client-26 	39
scalar tree_4_3_u03_r1_network.content_distribution 	repo-0_card 	100000
scalar tree_4_3_u03_r1_network.content_distribution 	repo-0_price 	0
scalar tree_4_3_u03_r1_network.statistics 	stabilization_time 	1057.9
scalar tree_4_3_u03_r1_network.statistics 	p_hit 	0.18768243195104
scalar tree_4_3_u03_r1_network.statistics 	interests 	25452.725
scalar tree_4_3_u03_r1_network.statistics 	data 	17362.025
scalar tree_4_3_u03_r1_network.statistics 	hdistance 	2.8387131137367
scalar tree_4_3_u03_r1_network.statistics 	avg_time 	0.004291845607
scalar tree_4_3_u03_r1_network.statistics 	downloads 	323632
scalar tree_4_3_u03_r1_network.statistics 	total_cost 	0
scalar tree_4_3_u03_r1_network.statistics 	total_replicas 	100000
scalar tree_4_3_u03_r1_network.statistics 	inner_hit 	0.30725330004449
scalar tree_4_3_u03_r1_network.node[0].core_layer 	interests[0] 	226420
scalar tree_4_3_u03_r1_network.node[0].core_layer 	repo_load[0] 	224195
scalar tree_4_3_u03_r1_network.node[0].core_layer 	data[0] 	0
scalar tree_4_3_u03_r1_network.node[0].core_layer 	repo_int[0] 	224195
scalar tree_4_3_u03_r1_network.node[0].content_store 	p_hit[0] 	0.0098268704178076
scalar tree_4_3_u03_r1_network.node[0].content_store 	hits[0] 	2225
scalar tree_4_3_u03_r1_network.node[0].content_store 	misses[0] 	224195
scalar tree_4_3_u03_r1_network.node[0].content_store 	decision_yes[0] 	224195
scalar tree_4_3_u03_r1_network.node[0].content_store 	decision_no[0] 	0
scalar tree_4_3_u03_r1_network.node[0].content_store 	decision_ratio[0] 	1
scalar tree_4_3_u03_r1_network.node[1].core_layer 	interests[1] 	76650
scalar tree_4_3_u03_r1_network.node[1].core_layer 	data[1] 	75321
scalar tree_4_3_u03_r1_network.node[1].content_store 	p_hit[1] 	0.0173385518591
scalar tree_4_3_u03_r1_network.node[1].content_store 	hits[1] 	1329
scalar tree_4_3_u03_r1_network.node[1].content_store 	misses[1] 	75321
scalar tree_4_3_u03_r1_network.node[1].content_store 	decision_yes[1] 	770
scalar tree_4_3_u03_r1_network.node[1].content_store 	decision_no[1] 	74551
scalar tree_4_3_u03_r1_network.node[1].content_store 	decision_ratio[1] 	0.010222912600736
scalar tree_4_3_u03_r1_network.node[2].core_layer 	interests[2] 	76815
scalar tree_4_3_u03_r1_network.node[2].core_layer 	data[2] 	75505
scalar tree_4_3_u03_r1_network.node[2].content_store 	p_hit[2] 	0.017053960814945
scalar tree_4_3_u03_r1_network.node[2].content_store 	hits[2] 	1310
scalar tree_4_3_u03_r1_network.node[2].content_store 	misses[2] 	75505
scalar tree_4_3_u03_r1_network.node[2].content_store 	decision_yes[2] 	761
scalar tree_4_3_u03_r1_network.node[2].content_store 	decision_no[2] 	74744
scalar tree_4_3_u03_r1_network.node[2].content_store 	decision_ratio[2] 	0.010078802728296
scalar tree_4_3_u03_r1_network.node[3].core_layer 	interests[3] 	76875
scalar tree_4_3_u03_r1_network.node[3].core_layer 	data[3] 	75595
scalar tree_4_3_u03_r1_network.node[3].content_store 	p_hit[3] 	0.016650406504065
scalar tree_4_3_u03_r1_network.node[3].content_store 	hits[3] 	1280
scalar tree_4_3_u03_r1_network.node[3].content_store 	misses[3] 	75595
scalar tree_4_3_u03_r1_network.node[3].content_store 	decision_yes[3] 	694
scalar tree_4_3_u03_r1_network.node[3].content_store 	decision_no[3] 	74901
scalar tree_4_3_u03_r1_network.node[3].content_store 	decision_ratio[3] 	0.0091805013559098
scalar tree_4_3_u03_r1_network.node[4].core_layer 	interests[4] 	35286
scalar tree_4_3_u03_r1_network.node[4].core_layer 	data[4] 	34128
scalar tree_4_3_u03_r1_network.node[4].content_store 	p_hit[4] 	0.032732528481551
scalar tree_4_3_u03_r1_network.node[4].content_store 	hits[4] 	1155
scalar tree_4_3_u03_r1_network.node[4].content_store 	misses[4] 	34131
scalar tree_4_3_u03_r1_network.node[4].content_store 	decision_yes[4] 	521
scalar tree_4_3_u03_r1_network.node[4].content_store 	decision_no[4] 	33607
scalar tree_4_3_u03_r1_network.node[4].content_store 	decision_ratio[4] 	0.015266057196437
scalar tree_4_3_u03_r1_network.node[5].core_layer 	interests[5] 	17652
scalar tree_4_3_u03_r1_network.node[5].core_layer 	data[5] 	17081
scalar tree_4_3_u03_r1_network.node[5].content_store 	p_hit[5] 	0.032347609336053
scalar tree_4_3_u03_r1_network.node[5].content_store 	hits[5] 	571
scalar tree_4_3_u03_r1_network.node[5].content_store 	misses[5] 	17081
scalar tree_4_3_u03_r1_network.node[5].content_store 	decision_yes[5] 	354
scalar tree_4_3_u03_r1_network.node[5].content_store 	decision_no[5] 	16727
scalar tree_4_3_u03_r1_network.node[5].content_store 	decision_ratio[5] 	0.020724781921433
scalar tree_4_3_u03_r1_network.node[6].core_layer 	interests[6] 	26249
scalar tree_4_3_u03_r1_network.node[6].core_layer 	data[6] 	25441
scalar tree_4_3_u03_r1_network.node[6].content_store 	p_hit[6] 	0.030782125033335
scalar tree_4_3_u03_r1_network.node[6].content_store 	hits[6] 	808
scalar tree_4_3_u03_r1_network.node[6].content_store 	misses[6] 	25441
scalar tree_4_3_u03_r1_network.node[6].content_store 	decision_yes[6] 	454
scalar tree_4_3_u03_r1_network.node[6].content_store 	decision_no[6] 	24987
scalar tree_4_3_u03_r1_network.node[6].content_store 	decision_ratio[6] 	0.017845210487009
scalar tree_4_3_u03_r1_network.node[7].core_layer 	interests[7] 	35441
scalar tree_4_3_u03_r1_network.node[7].core_layer 	data[7] 	34360
scalar tree_4_3_u03_r1_network.node[7].content_store 	p_hit[7] 	0.030501396687452
scalar tree_4_3_u03_r1_network.node[7].content_store 	hits[7] 	1081
scalar tree_4_3_u03_r1_network.node[7].content_store 	misses[7] 	34360
scalar tree_4_3_u03_r1_network.node[7].content_store 	decision_yes[7] 	527
scalar tree_4_3_u03_r1_network.node[7].content_store 	decision_no[7] 	33833
scalar tree_4_3_u03_r1_network.node[7].content_store 	decision_ratio[7] 	0.015337601862631
scalar tree_4_3_u03_r1_network.node[8].core_layer 	interests[8] 	26214
scalar tree_4_3_u03_r1_network.node[8].core_layer 	data[8] 	25381
scalar tree_4_3_u03_r1_network.node[8].content_store 	p_hit[8] 	0.03177691309987
scalar tree_4_3_u03_r1_network.node[8].content_store 	hits[8] 	833
scalar tree_4_3_u03_r1_network.node[8].content_store 	misses[8] 	25381
scalar tree_4_3_u03_r1_network.node[8].content_store 	decision_yes[8] 	434
scalar tree_4_3_u03_r1_network.node[8].content_store 	decision_no[8] 	24947
scalar tree_4_3_u03_r1_network.node[8].content_store 	decision_ratio[8] 	0.017099405066782
scalar tree_4_3_u03_r1_network.node[9].core_layer 	interests[9] 	17613
scalar tree_4_3_u03_r1_network.node[9].core_layer 	data[9] 	17074
scalar tree_4_3_u03_r1_network.node[9].content_store 	p_hit[9] 	0.030602395957531
scalar tree_4_3_u03_r1_network.node[9].content_store 	hits[9] 	539
scalar tree_4_3_u03_r1_network.node[9].content_store 	misses[9] 	17074
scalar tree_4_3_u03_r1_network.node[9].content_store 	decision_yes[9] 	349
scalar tree_4_3_u03_r1_network.node[9].content_store 	decision_no[9] 	16725
scalar tree_4_3_u03_r1_network.node[9].content_store 	decision_ratio[9] 	0.020440435750264
scalar tree_4_3_u03_r1_network.node[10].core_layer 	interests[10] 	26443
scalar tree_4_3_u03_r1_network.node[10].core_layer 	data[10] 	25671
scalar tree_4_3_u03_r1_network.node[10].content_store 	p_hit[10] 	0.029194871988806
scalar tree_4_3_u03_r1_network.node[10].content_store 	hits[10] 	772
scalar tree_4_3_u03_r1_network.node[10].content_store 	misses[10] 	25671
scalar tree_4_3_u03_r1_network.node[10].content_store 	decision_yes[10] 	430
scalar tree_4_3_u03_r1_network.node[10].content_store 	decision_no[10] 	25241
scalar tree_4_3_u03_r1_network.node[10].content_store 	decision_ratio[10] 	0.016750418760469
scalar tree_4_3_u03_r1_network.node[11].core_layer 	interests[11] 	26289
scalar tree_4_3_u03_r1_network.node[11].core_layer 	data[11] 	25488
scalar tree_4_3_u03_r1_network.node[11].content_store 	p_hit[11] 	0.030430978736354
scalar tree_4_3_u03_r1_network.node[11].content_store 	hits[11] 	800
scalar tree_4_3_u03_r1_network.node[11].content_store 	misses[11] 	25489
scalar tree_4_3_u03_r1_network.node[11].content_store 	decision_yes[11] 	424
scalar tree_4_3_u03_r1_network.node[11].content_store 	decision_no[11] 	25064
scalar tree_4_3_u03_r1_network.node[11].content_store 	decision_ratio[11] 	0.016635279347144
scalar tree_4_3_u03_r1_network.node[12].core_layer 	interests[12] 	26530
scalar tree_4_3_u03_r1_network.node[12].core_layer 	data[12] 	25717
scalar tree_4_3_u03_r1_network.node[12].content_store 	p_hit[12] 	0.030682246513381
scalar tree_4_3_u03_r1_network.node[12].content_store 	hits[12] 	814
scalar tree_4_3_u03_r1_network.node[12].content_store 	misses[12] 	25716
scalar tree_4_3_u03_r1_network.node[12].content_store 	decision_yes[12] 	426
scalar tree_4_3_u03_r1_network.node[12].content_store 	decision_no[12] 	25291
scalar tree_4_3_u03_r1_network.node[12].content_store 	decision_ratio[12] 	0.016564918147529
scalar tree_4_3_u03_r1_network.node[13].core_layer 	interests[13] 	12084
scalar tree_4_3_u03_r1_network.node[13].core_layer 	data[13] 	8845
scalar tree_4_3_u03_r1_network.node[13].content_store 	p_hit[13] 	0.26795762992387
scalar tree_4_3_u03_r1_network.node[13].content_store 	hits[13] 	3238
scalar tree_4_3_u03_r1_network.node[13].content_store 	misses[13] 	8846
scalar tree_4_3_u03_r1_network.node[13].content_store 	decision_yes[13] 	280
scalar tree_4_3_u03_r1_network.node[13].content_store 	decision_no[13] 	8565
scalar tree_4_3_u03_r1_network.node[13].content_store 	decision_ratio[13] 	0.031656302996043
scalar tree_4_3_u03_r1_network.node[14].core_layer 	interests[14] 	12130
scalar tree_4_3_u03_r1_network.node[14].core_layer 	data[14] 	8935
scalar tree_4_3_u03_r1_network.node[14].content_store 	p_hit[14] 	0.26339653751031
scalar tree_4_3_u03_r1_network.node[14].content_store 	hits[14] 	3195
scalar tree_4_3_u03_r1_network.node[14].content_store 	misses[14] 	8935
scalar tree_4_3_u03_r1_network.node[14].content_store 	decision_yes[14] 	281
scalar tree_4_3_u03_r1_network.node[14].content_store 	decision_no[14] 	8654
scalar tree_4_3_u03_r1_network.node[14].content_store 	decision_ratio[14] 	0.031449356463346
scalar tree_4_3_u03_r1_network.node[15].core_layer 	interests[15] 	12063
scalar tree_4_3_u03_r1_network.node[15].core_layer 	data[15] 	8752
scalar tree_4_3_u03_r1_network.node[15].content_store 	p_hit[15] 	0.27439277128409
scalar tree_4_3_u03_r1_network.node[15].content_store 	hits[15] 	3310
scalar tree_4_3_u03_r1_network.node[15].content_store 	misses[15] 	8753
scalar tree_4_3_u03_r1_network.node[15].content_store 	decision_yes[15] 	271
scalar tree_4_3_u03_r1_network.node[15].content_store 	decision_no[15] 	8481
scalar tree_4_3_u03_r1_network.node[15].content_store 	decision_ratio[15] 	0.030964351005484
scalar tree_4_3_u03_r1_network.node[16].core_layer 	interests[16] 	11945
scalar tree_4_3_u03_r1_network.node[16].core_layer 	data[16] 	8753
scalar tree_4_3_u03_r1_network.node[16].content_store 	p_hit[16] 	0.26722478024278
scalar tree_4_3_u03_r1_network.node[16].content_store 	hits[16] 	3192
scalar tree_4_3_u03_r1_network.node[16].content_store 	misses[16] 	8753
scalar tree_4_3_u03_r1_network.node[16].content_store 	decision_yes[16] 	323
scalar tree_4_3_u03_r1_network.node[16].content_store 	decision_no[16] 	8430
scalar tree_4_3_u03_r1_network.node[16].content_store 	decision_ratio[16] 	0.03690163372558
scalar tree_4_3_u03_r1_network.node[17].core_layer 	interests[17] 	11952
scalar tree_4_3_u03_r1_network.node[17].core_layer 	data[17] 	8786
scalar tree_4_3_u03_r1_network.node[17].content_store 	p_hit[17] 	0.26489290495315
scalar tree_4_3_u03_r1_network.node[17].content_store 	hits[17] 	3166
scalar tree_4_3_u03_r1_network.node[17].content_store 	misses[17] 	8786
scalar tree_4_3_u03_r1_network.node[17].content_store 	decision_yes[17] 	290
scalar tree_4_3_u03_r1_network.node[17].content_store 	decision_no[17] 	8496
scalar tree_4_3_u03_r1_network.node[17].content_store 	decision_ratio[17] 	0.033007056681084
scalar tree_4_3_u03_r1_network.node[18].core_layer 	interests[18] 	12084
scalar tree_4_3_u03_r1_network.node[18].core_layer 	data[18] 	8866
scalar tree_4_3_u03_r1_network.node[18].content_store 	p_hit[18] 	0.26630254882489
scalar tree_4_3_u03_r1_network.node[18].content_store 	hits[18] 	3218
scalar tree_4_3_u03_r1_network.node[18].content_store 	misses[18] 	8866
scalar tree_4_3_u03_r1_network.node[18].content_store 	decision_yes[18] 	281
scalar tree_4_3_u03_r1_network.node[18].content_store 	decision_no[18] 	8585
scalar tree_4_3_u03_r1_network.node[18].content_store 	decision_ratio[18] 	0.031694112339274
scalar tree_4_3_u03_r1_network.node[19].core_layer 	interests[19] 	11816
scalar tree_4_3_u03_r1_network.node[19].core_layer 	data[19] 	8732
scalar tree_4_3_u03_r1_network.node[19].content_store 	p_hit[19] 	0.26108666215301
scalar tree_4_3_u03_r1_network.node[19].content_store 	hits[19] 	3085
scalar tree_4_3_u03_r1_network.node[19].content_store 	misses[19] 	8731
scalar tree_4_3_u03_r1_network.node[19].content_store 	decision_yes[19] 	271
scalar tree_4_3_u03_r1_network.node[19].content_store 	decision_no[19] 	8461
scalar tree_4_3_u03_r1_network.node[19].content_store 	decision_ratio[19] 	0.031035272560696
scalar tree_4_3_u03_r1_network.node[20].core_layer 	interests[20] 	11956
scalar tree_4_3_u03_r1_network.node[20].core_layer 	data[20] 	8775
scalar tree_4_3_u03_r1_network.node[20].content_store 	p_hit[20] 	0.26605888256942
scalar tree_4_3_u03_r1_network.node[20].content_store 	hits[20] 	3181
scalar tree_4_3_u03_r1_network.node[20].content_store 	misses[20] 	8775
scalar tree_4_3_u03_r1_network.node[20].content_store 	decision_yes[20] 	276
scalar tree_4_3_u03_r1_network.node[20].content_store 	decision_no[20] 	8499
scalar tree_4_3_u03_r1_network.node[20].content_store 	decision_ratio[20] 	0.031452991452991
scalar tree_4_3_u03_r1_network.node[21].core_layer 	interests[21] 	11930
scalar tree_4_3_u03_r1_network.node[21].core_layer 	data[21] 	8743
scalar tree_4_3_u03_r1_network.node[21].content_store 	p_hit[21] 	0.26714165968148
scalar tree_4_3_u03_r1_network.node[21].content_store 	hits[21] 	3187
scalar tree_4_3_u03_r1_network.node[21].content_store 	misses[21] 	8743
scalar tree_4_3_u03_r1_network.node[21].content_store 	decision_yes[21] 	261
scalar tree_4_3_u03_r1_network.node[21].content_store 	decision_no[21] 	8482
scalar tree_4_3_u03_r1_network.node[21].content_store 	decision_ratio[21] 	0.029852453391284
scalar tree_4_3_u03_r1_network.node[22].core_layer 	interests[22] 	12064
scalar tree_4_3_u03_r1_network.node[22].core_layer 	data[22] 	8769
scalar tree_4_3_u03_r1_network.node[22].content_store 	p_hit[22] 	0.27312665782493
scalar tree_4_3_u03_r1_network.node[22].content_store 	hits[22] 	3295
scalar tree_4_3_u03_r1_network.node[22].content_store 	misses[22] 	8769
scalar tree_4_3_u03_r1_network.node[22].content_store 	decision_yes[22] 	259
scalar tree_4_3_u03_r1_network.node[22].content_store 	decision_no[22] 	8510
scalar tree_4_3_u03_r1_network.node[22].content_store 	decision_ratio[22] 	0.029535864978903
scalar tree_4_3_u03_r1_network.node[23].core_layer 	interests[23] 	12136
scalar tree_4_3_u03_r1_network.node[23].core_layer 	data[23] 	8980
scalar tree_4_3_u03_r1_network.node[23].content_store 	p_hit[23] 	0.26005273566249
scalar tree_4_3_u03_r1_network.node[23].content_store 	hits[23] 	3156
scalar tree_4_3_u03_r1_network.node[23].content_store 	misses[23] 	8980
scalar tree_4_3_u03_r1_network.node[23].content_store 	decision_yes[23] 	284
scalar tree_4_3_u03_r1_network.node[23].content_store 	decision_no[23] 	8696
scalar tree_4_3_u03_r1_network.node[23].content_store 	decision_ratio[23] 	0.03162583518931
scalar tree_4_3_u03_r1_network.node[24].core_layer 	interests[24] 	12017
scalar tree_4_3_u03_r1_network.node[24].core_layer 	data[24] 	8832
scalar tree_4_3_u03_r1_network.node[24].content_store 	p_hit[24] 	0.26504119164517
scalar tree_4_3_u03_r1_network.node[24].content_store 	hits[24] 	3185
scalar tree_4_3_u03_r1_network.node[24].content_store 	misses[24] 	8832
scalar tree_4_3_u03_r1_network.node[24].content_store 	decision_yes[24] 	264
scalar tree_4_3_u03_r1_network.node[24].content_store 	decision_no[24] 	8568
scalar tree_4_3_u03_r1_network.node[24].content_store 	decision_ratio[24] 	0.029891304347826
scalar tree_4_3_u03_r1_network.node[25].core_layer 	interests[25] 	11816
scalar tree_4_3_u03_r1_network.node[25].core_layer 	data[25] 	8671
scalar tree_4_3_u03_r1_network.node[25].content_store 	p_hit[25] 	0.26616452268111
scalar tree_4_3_u03_r1_network.node[25].content_store 	hits[25] 	3145
scalar tree_4_3_u03_r1_network.node[25].content_store 	misses[25] 	8671
scalar tree_4_3_u03_r1_network.node[25].content_store 	decision_yes[25] 	277
scalar tree_4_3_u03_r1_network.node[25].content_store 	decision_no[25] 	8394
scalar tree_4_3_u03_r1_network.node[25].content_store 	decision_ratio[25] 	0.031945565678699
scalar tree_4_3_u03_r1_network.node[26].core_layer 	interests[26] 	12077
scalar tree_4_3_u03_r1_network.node[26].core_layer 	data[26] 	8827
scalar tree_4_3_u03_r1_network.node[26].content_store 	p_hit[26] 	0.26910656620022
scalar tree_4_3_u03_r1_network.node[26].content_store 	hits[26] 	3250
scalar tree_4_3_u03_r1_network.node[26].content_store 	misses[26] 	8827
scalar tree_4_3_u03_r1_network.node[26].content_store 	decision_yes[26] 	277
scalar tree_4_3_u03_r1_network.node[26].content_store 	decision_no[26] 	8550
scalar tree_4_3_u03_r1_network.node[26].content_store 	decision_ratio[26] 	0.031380990143877
scalar tree_4_3_u03_r1_network.node[27].core_layer 	interests[27] 	11961
scalar tree_4_3_u03_r1_network.node[27].core_layer 	data[27] 	8716
scalar tree_4_3_u03_r1_network.node[27].content_store 	p_hit[27] 	0.27129838642254
scalar tree_4_3_u03_r1_network.node[27].content_store 	hits[27] 	3245
scalar tree_4_3_u03_r1_network.node[27].content_store 	misses[27] 	8716
scalar tree_4_3_u03_r1_network.node[27].content_store 	decision_yes[27] 	279
scalar tree_4_3_u03_r1_network.node[27].content_store 	decision_no[27] 	8437
scalar tree_4_3_u03_r1_network.node[27].content_store 	decision_ratio[27] 	0.032010096374484
scalar tree_4_3_u03_r1_network.node[28].core_layer 	interests[28] 	12071
scalar tree_4_3_u03_r1_network.node[28].core_layer 	data[28] 	8860
scalar tree_4_3_u03_r1_network.node[28].content_store 	p_hit[28] 	0.26600944412228
scalar tree_4_3_u03_r1_network.node[28].content_store 	hits[28] 	3211
scalar tree_4_3_u03_r1_network.node[28].content_store 	misses[28] 	8860
scalar tree_4_3_u03_r1_network.node[28].content_store 	decision_yes[28] 	274
scalar tree_4_3_u03_r1_network.node[28].content_store 	decision_no[28] 	8586
scalar tree_4_3_u03_r1_network.node[28].content_store 	decision_ratio[28] 	0.030925507900677
scalar tree_4_3_u03_r1_network.node[29].core_layer 	interests[29] 	11980
scalar tree_4_3_u03_r1_network.node[29].core_layer 	data[29] 	8823
scalar tree_4_3_u03_r1_network.node[29].content_store 	p_hit[29] 	0.2635225375626
scalar tree_4_3_u03_r1_network.node[29].content_store 	hits[29] 	3157
scalar tree_4_3_u03_r1_network.node[29].content_store 	misses[29] 	8823
scalar tree_4_3_u03_r1_network.node[29].content_store 	decision_yes[29] 	264
scalar tree_4_3_u03_r1_network.node[29].content_store 	decision_no[29] 	8559
scalar tree_4_3_u03_r1_network.node[29].content_store 	decision_ratio[29] 	0.029921795307718
scalar tree_4_3_u03_r1_network.node[30].core_layer 	interests[30] 	11894
scalar tree_4_3_u03_r1_network.node[30].core_layer 	data[30] 	8790
scalar tree_4_3_u03_r1_network.node[30].content_store 	p_hit[30] 	0.26097191861443
scalar tree_4_3_u03_r1_network.node[30].content_store 	hits[30] 	3104
scalar tree_4_3_u03_r1_network.node[30].content_store 	misses[30] 	8790
scalar tree_4_3_u03_r1_network.node[30].content_store 	decision_yes[30] 	275
scalar tree_4_3_u03_r1_network.node[30].content_store 	decision_no[30] 	8515
scalar tree_4_3_u03_r1_network.node[30].content_store 	decision_ratio[30] 	0.031285551763367
scalar tree_4_3_u03_r1_network.node[31].core_layer 	interests[31] 	12006
scalar tree_4_3_u03_r1_network.node[31].core_layer 	data[31] 	8806
scalar tree_4_3_u03_r1_network.node[31].content_store 	p_hit[31] 	0.26661669165417
scalar tree_4_3_u03_r1_network.node[31].content_store 	hits[31] 	3201
scalar tree_4_3_u03_r1_network.node[31].content_store 	misses[31] 	8805
scalar tree_4_3_u03_r1_network.node[31].content_store 	decision_yes[31] 	247
scalar tree_4_3_u03_r1_network.node[31].content_store 	decision_no[31] 	8559
scalar tree_4_3_u03_r1_network.node[31].content_store 	decision_ratio[31] 	0.028049057460822
scalar tree_4_3_u03_r1_network.node[32].core_layer 	interests[32] 	11965
scalar tree_4_3_u03_r1_network.node[32].core_layer 	data[32] 	8895
scalar tree_4_3_u03_r1_network.node[32].content_store 	p_hit[32] 	0.25649811951525
scalar tree_4_3_u03_r1_network.node[32].content_store 	hits[32] 	3069
scalar tree_4_3_u03_r1_network.node[32].content_store 	misses[32] 	8896
scalar tree_4_3_u03_r1_network.node[32].content_store 	decision_yes[32] 	275
scalar tree_4_3_u03_r1_network.node[32].content_store 	decision_no[32] 	8620
scalar tree_4_3_u03_r1_network.node[32].content_store 	decision_ratio[32] 	0.030916245081506
scalar tree_4_3_u03_r1_network.node[33].core_layer 	interests[33] 	11959
scalar tree_4_3_u03_r1_network.node[33].core_layer 	data[33] 	8743
scalar tree_4_3_u03_r1_network.node[33].content_store 	p_hit[33] 	0.26891880592023
scalar tree_4_3_u03_r1_network.node[33].content_store 	hits[33] 	3216
scalar tree_4_3_u03_r1_network.node[33].content_store 	misses[33] 	8743
scalar tree_4_3_u03_r1_network.node[33].content_store 	decision_yes[33] 	250
scalar tree_4_3_u03_r1_network.node[33].content_store 	decision_no[33] 	8493
scalar tree_4_3_u03_r1_network.node[33].content_store 	decision_ratio[33] 	0.02859430401464
scalar tree_4_3_u03_r1_network.node[34].core_layer 	interests[34] 	11801
scalar tree_4_3_u03_r1_network.node[34].core_layer 	data[34] 	8610
scalar tree_4_3_u03_r1_network.node[34].content_store 	p_hit[34] 	0.27040081349038
scalar tree_4_3_u03_r1_network.node[34].content_store 	hits[34] 	3191
scalar tree_4_3_u03_r1_network.node[34].content_store 	misses[34] 	8610
scalar tree_4_3_u03_r1_network.node[34].content_store 	decision_yes[34] 	256
scalar tree_4_3_u03_r1_network.node[34].content_store 	decision_no[34] 	8354
scalar tree_4_3_u03_r1_network.node[34].content_store 	decision_ratio[34] 	0.029732868757259
scalar tree_4_3_u03_r1_network.node[35].core_layer 	interests[35] 	12125
scalar tree_4_3_u03_r1_network.node[35].core_layer 	data[35] 	8942
scalar tree_4_3_u03_r1_network.node[35].content_store 	p_hit[35] 	0.26251546391753
scalar tree_4_3_u03_r1_network.node[35].content_store 	hits[35] 	3183
scalar tree_4_3_u03_r1_network.node[35].content_store 	misses[35] 	8942
scalar tree_4_3_u03_r1_network.node[35].content_store 	decision_yes[35] 	267
scalar tree_4_3_u03_r1_network.node[35].content_store 	decision_no[35] 	8675
scalar tree_4_3_u03_r1_network.node[35].content_store 	decision_ratio[35] 	0.029859091925744
scalar tree_4_3_u03_r1_network.node[36].core_layer 	interests[36] 	11750
scalar tree_4_3_u03_r1_network.node[36].core_layer 	data[36] 	8737
scalar tree_4_3_u03_r1_network.node[36].content_store 	p_hit[36] 	0.25642553191489
scalar tree_4_3_u03_r1_network.node[36].content_store 	hits[36] 	3013
scalar tree_4_3_u03_r1_network.node[36].content_store 	misses[36] 	8737
scalar tree_4_3_u03_r1_network.node[36].content_store 	decision_yes[36] 	277
scalar tree_4_3_u03_r1_network.node[36].content_store 	decision_no[36] 	8460
scalar tree_4_3_u03_r1_network.node[36].content_store 	decision_ratio[36] 	0.031704246308802
scalar tree_4_3_u03_r1_network.node[37].core_layer 	interests[37] 	11887
scalar tree_4_3_u03_r1_network.node[37].core_layer 	data[37] 	8766
scalar tree_4_3_u03_r1_network.node[37].content_store 	p_hit[37] 	0.26263985866913
scalar tree_4_3_u03_r1_network.node[37].content_store 	hits[37] 	3122
scalar tree_4_3_u03_r1_network.node[37].content_store 	misses[37] 	8765
scalar tree_4_3_u03_r1_network.node[37].content_store 	decision_yes[37] 	274
scalar tree_4_3_u03_r1_network.node[37].content_store 	decision_no[37] 	8492
scalar tree_4_3_u03_r1_network.node[37].content_store 	decision_ratio[37] 	0.031257129819758
scalar tree_4_3_u03_r1_network.node[38].core_layer 	interests[38] 	12003
scalar tree_4_3_u03_r1_network.node[38].core_layer 	data[38] 	8785
scalar tree_4_3_u03_r1_network.node[38].content_store 	p_hit[38] 	0.26809964175623
scalar tree_4_3_u03_r1_network.node[38].content_store 	hits[38] 	3218
scalar tree_4_3_u03_r1_network.node[38].content_store 	misses[38] 	8785
scalar tree_4_3_u03_r1_network.node[38].content_store 	decision_yes[38] 	283
scalar tree_4_3_u03_r1_network.node[38].content_store 	decision_no[38] 	8502
scalar tree_4_3_u03_r1_network.node[38].content_store 	decision_ratio[38] 	0.032214001138304
scalar tree_4_3_u03_r1_network.node[39].core_layer 	interests[39] 	12160
scalar tree_4_3_u03_r1_network.node[39].core_layer 	data[39] 	8980
scalar tree_4_3_u03_r1_network.node[39].content_store 	p_hit[39] 	0.26151315789474
scalar tree_4_3_u03_r1_network.node[39].content_store 	hits[39] 	3180
scalar tree_4_3_u03_r1_network.node[39].content_store 	misses[39] 	8980
scalar tree_4_3_u03_r1_network.node[39].content_store 	decision_yes[39] 	257
scalar tree_4_3_u03_r1_network.node[39].content_store 	decision_no[39] 	8723
scalar tree_4_3_u03_r1_network.node[39].content_store 	decision_ratio[39] 	0.028619153674833
scalar tree_4_3_u03_r1_network.client[13] 	hdistance[13] 	2.8317470826781
scalar tree_4_3_u03_r1_network.client[13] 	downloads[13] 	12083
scalar tree_4_3_u03_r1_network.client[13] 	avg_time[13] 	0.004279034872
scalar tree_4_3_u03_r1_network.client[14] 	hdistance[14] 	2.8501236603462
scalar tree_4_3_u03_r1_network.client[14] 	downloads[14] 	12130
scalar tree_4_3_u03_r1_network.client[14] 	avg_time[14] 	0.004308158551
scalar tree_4_3_u03_r1_network.client[15] 	hdistance[15] 	2.802354501741
scalar tree_4_3_u03_r1_network.client[15] 	downloads[15] 	12062
scalar tree_4_3_u03_r1_network.client[15] 	avg_time[15] 	0.004238100113
scalar tree_4_3_u03_r1_network.client[16] 	hdistance[16] 	2.821096693177
scalar tree_4_3_u03_r1_network.client[16] 	downloads[16] 	11945
scalar tree_4_3_u03_r1_network.client[16] 	avg_time[16] 	0.004266196287
scalar tree_4_3_u03_r1_network.client[17] 	hdistance[17] 	2.8329986613119
scalar tree_4_3_u03_r1_network.client[17] 	downloads[17] 	11952
scalar tree_4_3_u03_r1_network.client[17] 	avg_time[17] 	0.00428547224
scalar tree_4_3_u03_r1_network.client[18] 	hdistance[18] 	2.8275405494869
scalar tree_4_3_u03_r1_network.client[18] 	downloads[18] 	12084
scalar tree_4_3_u03_r1_network.client[18] 	avg_time[18] 	0.004278381622
scalar tree_4_3_u03_r1_network.client[19] 	hdistance[19] 	2.8540238639249
scalar tree_4_3_u03_r1_network.client[19] 	downloads[19] 	11817
scalar tree_4_3_u03_r1_network.client[19] 	avg_time[19] 	0.004315644002
scalar tree_4_3_u03_r1_network.client[20] 	hdistance[20] 	2.8361492137839
scalar tree_4_3_u03_r1_network.client[20] 	downloads[20] 	11956
scalar tree_4_3_u03_r1_network.client[20] 	avg_time[20] 	0.004288387793
scalar tree_4_3_u03_r1_network.client[21] 	hdistance[21] 	2.8304274937133
scalar tree_4_3_u03_r1_network.client[21] 	downloads[21] 	11930
scalar tree_4_3_u03_r1_network.client[21] 	avg_time[21] 	0.004282478151
scalar tree_4_3_u03_r1_network.client[22] 	hdistance[22] 	2.8164787798409
scalar tree_4_3_u03_r1_network.client[22] 	downloads[22] 	12064
scalar tree_4_3_u03_r1_network.client[22] 	avg_time[22] 	0.004254804689
scalar tree_4_3_u03_r1_network.client[23] 	hdistance[23] 	2.8581905075807
scalar tree_4_3_u03_r1_network.client[23] 	downloads[23] 	12136
scalar tree_4_3_u03_r1_network.client[23] 	avg_time[23] 	0.004322508489
scalar tree_4_3_u03_r1_network.client[24] 	hdistance[24] 	2.845219272697
scalar tree_4_3_u03_r1_network.client[24] 	downloads[24] 	12017
scalar tree_4_3_u03_r1_network.client[24] 	avg_time[24] 	0.004300904077
scalar tree_4_3_u03_r1_network.client[25] 	hdistance[25] 	2.8335308056872
scalar tree_4_3_u03_r1_network.client[25] 	downloads[25] 	11816
scalar tree_4_3_u03_r1_network.client[25] 	avg_time[25] 	0.004285711319
scalar tree_4_3_u03_r1_network.client[26] 	hdistance[26] 	2.8240457067153
scalar tree_4_3_u03_r1_network.client[26] 	downloads[26] 	12077
scalar tree_4_3_u03_r1_network.client[26] 	avg_time[26] 	0.004269765974
scalar tree_4_3_u03_r1_network.client[27] 	hdistance[27] 	2.8139787643174
scalar tree_4_3_u03_r1_network.client[27] 	downloads[27] 	11961
scalar tree_4_3_u03_r1_network.client[27] 	avg_time[27] 	0.004253654722
scalar tree_4_3_u03_r1_network.client[28] 	hdistance[28] 	2.8389528622318
scalar tree_4_3_u03_r1_network.client[28] 	downloads[28] 	12071
scalar tree_4_3_u03_r1_network.client[28] 	avg_time[28] 	0.004290942244
scalar tree_4_3_u03_r1_network.client[29] 	hdistance[29] 	2.8429048414023
scalar tree_4_3_u03_r1_network.client[29] 	downloads[29] 	11980
scalar tree_4_3_u03_r1_network.client[29] 	avg_time[29] 	0.004300831754
scalar tree_4_3_u03_r1_network.client[30] 	hdistance[30] 	2.8505128636287
scalar tree_4_3_u03_r1_network.client[30] 	downloads[30] 	11894
scalar tree_4_3_u03_r1_network.client[30] 	avg_time[30] 	0.004313096066
scalar tree_4_3_u03_r1_network.client[31] 	hdistance[31] 	2.8444240859499
scalar tree_4_3_u03_r1_network.client[31] 	downloads[31] 	12007
scalar tree_4_3_u03_r1_network.client[31] 	avg_time[31] 	0.004297323562
scalar tree_4_3_u03_r1_network.client[32] 	hdistance[32] 	2.8732029421598
scalar tree_4_3_u03_r1_network.client[32] 	downloads[32] 	11964
scalar tree_4_3_u03_r1_network.client[32] 	avg_time[32] 	0.004343538361
scalar tree_4_3_u03_r1_network.client[33] 	hdistance[33] 	2.8294171753491
scalar tree_4_3_u03_r1_network.client[33] 	downloads[33] 	11959
scalar tree_4_3_u03_r1_network.client[33] 	avg_time[33] 	0.004276943231
scalar tree_4_3_u03_r1_network.client[34] 	hdistance[34] 	2.8251843064147
scalar tree_4_3_u03_r1_network.client[34] 	downloads[34] 	11801
scalar tree_4_3_u03_r1_network.client[34] 	avg_time[34] 	0.004267940449
scalar tree_4_3_u03_r1_network.client[35] 	hdistance[35] 	2.8533608247423
scalar tree_4_3_u03_r1_network.client[35] 	downloads[35] 	12125
scalar tree_4_3_u03_r1_network.client[35] 	avg_time[35] 	0.004312404857
scalar tree_4_3_u03_r1_network.client[36] 	hdistance[36] 	2.8740425531915
scalar tree_4_3_u03_r1_network.client[36] 	downloads[36] 	11750
scalar tree_4_3_u03_r1_network.client[36] 	avg_time[36] 	0.004343006072
scalar tree_4_3_u03_r1_network.client[37] 	hdistance[37] 	2.8473250336474
scalar tree_4_3_u03_r1_network.client[37] 	downloads[37] 	11888
scalar tree_4_3_u03_r1_network.client[37] 	avg_time[37] 	0.004306524613
scalar tree_4_3_u03_r1_network.client[38] 	hdistance[38] 	2.8237940514871
scalar tree_4_3_u03_r1_network.client[38] 	downloads[38] 	12003
scalar tree_4_3_u03_r1_network.client[38] 	avg_time[38] 	0.004271929027
scalar tree_4_3_u03_r1_network.client[39] 	hdistance[39] 	2.8642269736842
scalar tree_4_3_u03_r1_network.client[39] 	downloads[39] 	12160
scalar tree_4_3_u03_r1_network.client[39] 	avg_time[39] 	0.004326148275
