version 2
run General-63-20160820-07:44:21-856
attr a 0.9
attr cd lcd
attr configname General
attr cr lru
attr datetime 20160820-07:44:21
attr experiment General
attr fsize 1
attr inifile hw5115/scenario_A/SPR-LCD.ini
attr iterationvars "$name=tree_4_3, $un=03, $rep=4, $cd=lcd, $cr=lru, $fsize=1, $a=0.9, $sl=spr, $ttl=1000, $variance=0.05"
attr iterationvars2 "$name=tree_4_3, $un=03, $rep=4, $cd=lcd, $cr=lru, $fsize=1, $a=0.9, $sl=spr, $ttl=1000, $variance=0.05, $repetition=0"
attr measurement "$name=tree_4_3, $un=03, $rep=4, $cd=lcd, $cr=lru, $fsize=1, $a=0.9, $sl=spr, $ttl=1000, $variance=0.05"
attr name tree_4_3
attr network networks.${name}_u${un}_r${rep}_network
attr processid 856
attr rep 4
attr repetition 0
attr replication #0
attr resultdir results
attr runnumber 63
attr seedset 4
attr sl spr
attr ttl 1000
attr un 03
attr variance 0.05

scalar . 	a 	0.9
scalar . 	fsize 	1
scalar . 	rep 	4
scalar . 	ttl 	1000
scalar . 	un 	03
scalar . 	variance 	0.05
scalar tree_4_3_u03_r4_network.content_distribution 	repo-0 	0
scalar tree_4_3_u03_r4_network.content_distribution 	client-0 	13
scalar tree_4_3_u03_r4_network.content_distribution 	client-1 	14
scalar tree_4_3_u03_r4_network.content_distribution 	client-2 	15
scalar tree_4_3_u03_r4_network.content_distribution 	client-3 	16
scalar tree_4_3_u03_r4_network.content_distribution 	client-4 	17
scalar tree_4_3_u03_r4_network.content_distribution 	client-5 	18
scalar tree_4_3_u03_r4_network.content_distribution 	client-6 	19
scalar tree_4_3_u03_r4_network.content_distribution 	client-7 	20
scalar tree_4_3_u03_r4_network.content_distribution 	client-8 	21
scalar tree_4_3_u03_r4_network.content_distribution 	client-9 	22
scalar tree_4_3_u03_r4_network.content_distribution 	client-10 	23
scalar tree_4_3_u03_r4_network.content_distribution 	client-11 	24
scalar tree_4_3_u03_r4_network.content_distribution 	client-12 	25
scalar tree_4_3_u03_r4_network.content_distribution 	client-13 	26
scalar tree_4_3_u03_r4_network.content_distribution 	client-14 	27
scalar tree_4_3_u03_r4_network.content_distribution 	client-15 	28
scalar tree_4_3_u03_r4_network.content_distribution 	client-16 	29
scalar tree_4_3_u03_r4_network.content_distribution 	client-17 	30
scalar tree_4_3_u03_r4_network.content_distribution 	client-18 	31
scalar tree_4_3_u03_r4_network.content_distribution 	client-19 	32
scalar tree_4_3_u03_r4_network.content_distribution 	client-20 	33
scalar tree_4_3_u03_r4_network.content_distribution 	client-21 	34
scalar tree_4_3_u03_r4_network.content_distribution 	client-22 	35
scalar tree_4_3_u03_r4_network.content_distribution 	client-23 	36
scalar tree_4_3_u03_r4_network.content_distribution 	client-24 	37
scalar tree_4_3_u03_r4_network.content_distribution 	client-25 	38
scalar tree_4_3_u03_r4_network.content_distribution 	client-26 	39
scalar tree_4_3_u03_r4_network.content_distribution 	repo-0_card 	100000
scalar tree_4_3_u03_r4_network.content_distribution 	repo-0_price 	0
scalar tree_4_3_u03_r4_network.statistics 	stabilization_time 	1054
scalar tree_4_3_u03_r4_network.statistics 	p_hit 	0.18788770111344
scalar tree_4_3_u03_r4_network.statistics 	interests 	25512.25
scalar tree_4_3_u03_r4_network.statistics 	data 	17397.4
scalar tree_4_3_u03_r4_network.statistics 	hdistance 	2.8351076377581
scalar tree_4_3_u03_r4_network.statistics 	avg_time 	0.004287729831
scalar tree_4_3_u03_r4_network.statistics 	downloads 	324599
scalar tree_4_3_u03_r4_network.statistics 	total_cost 	0
scalar tree_4_3_u03_r4_network.statistics 	total_replicas 	100000
scalar tree_4_3_u03_r4_network.statistics 	inner_hit 	0.30880255330423
scalar tree_4_3_u03_r4_network.node[0].core_layer 	interests[0] 	226670
scalar tree_4_3_u03_r4_network.node[0].core_layer 	repo_load[0] 	224362
scalar tree_4_3_u03_r4_network.node[0].core_layer 	data[0] 	0
scalar tree_4_3_u03_r4_network.node[0].core_layer 	repo_int[0] 	224362
scalar tree_4_3_u03_r4_network.node[0].content_store 	p_hit[0] 	0.010182203202894
scalar tree_4_3_u03_r4_network.node[0].content_store 	hits[0] 	2308
scalar tree_4_3_u03_r4_network.node[0].content_store 	misses[0] 	224362
scalar tree_4_3_u03_r4_network.node[0].content_store 	decision_yes[0] 	224362
scalar tree_4_3_u03_r4_network.node[0].content_store 	decision_no[0] 	0
scalar tree_4_3_u03_r4_network.node[0].content_store 	decision_ratio[0] 	1
scalar tree_4_3_u03_r4_network.node[1].core_layer 	interests[1] 	102160
scalar tree_4_3_u03_r4_network.node[1].core_layer 	data[1] 	100117
scalar tree_4_3_u03_r4_network.node[1].content_store 	p_hit[1] 	0.019988253719655
scalar tree_4_3_u03_r4_network.node[1].content_store 	hits[1] 	2042
scalar tree_4_3_u03_r4_network.node[1].content_store 	misses[1] 	100118
scalar tree_4_3_u03_r4_network.node[1].content_store 	decision_yes[1] 	1015
scalar tree_4_3_u03_r4_network.node[1].content_store 	decision_no[1] 	99102
scalar tree_4_3_u03_r4_network.node[1].content_store 	decision_ratio[1] 	0.010138138378098
scalar tree_4_3_u03_r4_network.node[2].core_layer 	interests[2] 	85309
scalar tree_4_3_u03_r4_network.node[2].core_layer 	data[2] 	83815
scalar tree_4_3_u03_r4_network.node[2].content_store 	p_hit[2] 	0.01748936220094
scalar tree_4_3_u03_r4_network.node[2].content_store 	hits[2] 	1492
scalar tree_4_3_u03_r4_network.node[2].content_store 	misses[2] 	83817
scalar tree_4_3_u03_r4_network.node[2].content_store 	decision_yes[2] 	856
scalar tree_4_3_u03_r4_network.node[2].content_store 	decision_no[2] 	82959
scalar tree_4_3_u03_r4_network.node[2].content_store 	decision_ratio[2] 	0.010212969038955
scalar tree_4_3_u03_r4_network.node[3].core_layer 	interests[3] 	43349
scalar tree_4_3_u03_r4_network.node[3].core_layer 	data[3] 	42739
scalar tree_4_3_u03_r4_network.node[3].content_store 	p_hit[3] 	0.014071835567141
scalar tree_4_3_u03_r4_network.node[3].content_store 	hits[3] 	610
scalar tree_4_3_u03_r4_network.node[3].content_store 	misses[3] 	42739
scalar tree_4_3_u03_r4_network.node[3].content_store 	decision_yes[3] 	437
scalar tree_4_3_u03_r4_network.node[3].content_store 	decision_no[3] 	42302
scalar tree_4_3_u03_r4_network.node[3].content_store 	decision_ratio[3] 	0.010224853178596
scalar tree_4_3_u03_r4_network.node[4].core_layer 	interests[4] 	26672
scalar tree_4_3_u03_r4_network.node[4].core_layer 	data[4] 	25810
scalar tree_4_3_u03_r4_network.node[4].content_store 	p_hit[4] 	0.032281043791242
scalar tree_4_3_u03_r4_network.node[4].content_store 	hits[4] 	861
scalar tree_4_3_u03_r4_network.node[4].content_store 	misses[4] 	25811
scalar tree_4_3_u03_r4_network.node[4].content_store 	decision_yes[4] 	511
scalar tree_4_3_u03_r4_network.node[4].content_store 	decision_no[4] 	25299
scalar tree_4_3_u03_r4_network.node[4].content_store 	decision_ratio[4] 	0.019798527702441
scalar tree_4_3_u03_r4_network.node[5].core_layer 	interests[5] 	26296
scalar tree_4_3_u03_r4_network.node[5].core_layer 	data[5] 	25453
scalar tree_4_3_u03_r4_network.node[5].content_store 	p_hit[5] 	0.032058107696988
scalar tree_4_3_u03_r4_network.node[5].content_store 	hits[5] 	843
scalar tree_4_3_u03_r4_network.node[5].content_store 	misses[5] 	25453
scalar tree_4_3_u03_r4_network.node[5].content_store 	decision_yes[5] 	500
scalar tree_4_3_u03_r4_network.node[5].content_store 	decision_no[5] 	24953
scalar tree_4_3_u03_r4_network.node[5].content_store 	decision_ratio[5] 	0.01964404981731
scalar tree_4_3_u03_r4_network.node[6].core_layer 	interests[6] 	26322
scalar tree_4_3_u03_r4_network.node[6].core_layer 	data[6] 	25461
scalar tree_4_3_u03_r4_network.node[6].content_store 	p_hit[6] 	0.032710280373832
scalar tree_4_3_u03_r4_network.node[6].content_store 	hits[6] 	861
scalar tree_4_3_u03_r4_network.node[6].content_store 	misses[6] 	25461
scalar tree_4_3_u03_r4_network.node[6].content_store 	decision_yes[6] 	519
scalar tree_4_3_u03_r4_network.node[6].content_store 	decision_no[6] 	24942
scalar tree_4_3_u03_r4_network.node[6].content_store 	decision_ratio[6] 	0.020384116884647
scalar tree_4_3_u03_r4_network.node[7].core_layer 	interests[7] 	26345
scalar tree_4_3_u03_r4_network.node[7].core_layer 	data[7] 	25436
scalar tree_4_3_u03_r4_network.node[7].content_store 	p_hit[7] 	0.034465743025242
scalar tree_4_3_u03_r4_network.node[7].content_store 	hits[7] 	908
scalar tree_4_3_u03_r4_network.node[7].content_store 	misses[7] 	25437
scalar tree_4_3_u03_r4_network.node[7].content_store 	decision_yes[7] 	512
scalar tree_4_3_u03_r4_network.node[7].content_store 	decision_no[7] 	24924
scalar tree_4_3_u03_r4_network.node[7].content_store 	decision_ratio[7] 	0.020128951092939
scalar tree_4_3_u03_r4_network.node[8].core_layer 	interests[8] 	26189
scalar tree_4_3_u03_r4_network.node[8].core_layer 	data[8] 	25328
scalar tree_4_3_u03_r4_network.node[8].content_store 	p_hit[8] 	0.032914582458284
scalar tree_4_3_u03_r4_network.node[8].content_store 	hits[8] 	862
scalar tree_4_3_u03_r4_network.node[8].content_store 	misses[8] 	25327
scalar tree_4_3_u03_r4_network.node[8].content_store 	decision_yes[8] 	475
scalar tree_4_3_u03_r4_network.node[8].content_store 	decision_no[8] 	24853
scalar tree_4_3_u03_r4_network.node[8].content_store 	decision_ratio[8] 	0.018753948199621
scalar tree_4_3_u03_r4_network.node[9].core_layer 	interests[9] 	26585
scalar tree_4_3_u03_r4_network.node[9].core_layer 	data[9] 	25710
scalar tree_4_3_u03_r4_network.node[9].content_store 	p_hit[9] 	0.032950912168516
scalar tree_4_3_u03_r4_network.node[9].content_store 	hits[9] 	876
scalar tree_4_3_u03_r4_network.node[9].content_store 	misses[9] 	25709
scalar tree_4_3_u03_r4_network.node[9].content_store 	decision_yes[9] 	489
scalar tree_4_3_u03_r4_network.node[9].content_store 	decision_no[9] 	25221
scalar tree_4_3_u03_r4_network.node[9].content_store 	decision_ratio[9] 	0.01901983663944
scalar tree_4_3_u03_r4_network.node[10].core_layer 	interests[10] 	26620
scalar tree_4_3_u03_r4_network.node[10].core_layer 	data[10] 	25859
scalar tree_4_3_u03_r4_network.node[10].content_store 	p_hit[10] 	0.028587528174305
scalar tree_4_3_u03_r4_network.node[10].content_store 	hits[10] 	761
scalar tree_4_3_u03_r4_network.node[10].content_store 	misses[10] 	25859
scalar tree_4_3_u03_r4_network.node[10].content_store 	decision_yes[10] 	347
scalar tree_4_3_u03_r4_network.node[10].content_store 	decision_no[10] 	25512
scalar tree_4_3_u03_r4_network.node[10].content_store 	decision_ratio[10] 	0.013418925712518
scalar tree_4_3_u03_r4_network.node[11].core_layer 	interests[11] 	35416
scalar tree_4_3_u03_r4_network.node[11].core_layer 	data[11] 	34272
scalar tree_4_3_u03_r4_network.node[11].content_store 	p_hit[11] 	0.032217077027332
scalar tree_4_3_u03_r4_network.node[11].content_store 	hits[11] 	1141
scalar tree_4_3_u03_r4_network.node[11].content_store 	misses[11] 	34275
scalar tree_4_3_u03_r4_network.node[11].content_store 	decision_yes[11] 	528
scalar tree_4_3_u03_r4_network.node[11].content_store 	decision_no[11] 	33744
scalar tree_4_3_u03_r4_network.node[11].content_store 	decision_ratio[11] 	0.015406162464986
scalar tree_4_3_u03_r4_network.node[12].core_layer 	interests[12] 	17958
scalar tree_4_3_u03_r4_network.node[12].core_layer 	data[12] 	17491
scalar tree_4_3_u03_r4_network.node[12].content_store 	p_hit[12] 	0.026005123064929
scalar tree_4_3_u03_r4_network.node[12].content_store 	hits[12] 	467
scalar tree_4_3_u03_r4_network.node[12].content_store 	misses[12] 	17491
scalar tree_4_3_u03_r4_network.node[12].content_store 	decision_yes[12] 	263
scalar tree_4_3_u03_r4_network.node[12].content_store 	decision_no[12] 	17228
scalar tree_4_3_u03_r4_network.node[12].content_store 	decision_ratio[12] 	0.015036304385112
scalar tree_4_3_u03_r4_network.node[13].core_layer 	interests[13] 	12217
scalar tree_4_3_u03_r4_network.node[13].core_layer 	data[13] 	8972
scalar tree_4_3_u03_r4_network.node[13].content_store 	p_hit[13] 	0.26569534255546
scalar tree_4_3_u03_r4_network.node[13].content_store 	hits[13] 	3246
scalar tree_4_3_u03_r4_network.node[13].content_store 	misses[13] 	8971
scalar tree_4_3_u03_r4_network.node[13].content_store 	decision_yes[13] 	275
scalar tree_4_3_u03_r4_network.node[13].content_store 	decision_no[13] 	8697
scalar tree_4_3_u03_r4_network.node[13].content_store 	decision_ratio[13] 	0.030650913954525
scalar tree_4_3_u03_r4_network.node[14].core_layer 	interests[14] 	12011
scalar tree_4_3_u03_r4_network.node[14].core_layer 	data[14] 	8875
scalar tree_4_3_u03_r4_network.node[14].content_store 	p_hit[14] 	0.26109399716926
scalar tree_4_3_u03_r4_network.node[14].content_store 	hits[14] 	3136
scalar tree_4_3_u03_r4_network.node[14].content_store 	misses[14] 	8875
scalar tree_4_3_u03_r4_network.node[14].content_store 	decision_yes[14] 	291
scalar tree_4_3_u03_r4_network.node[14].content_store 	decision_no[14] 	8584
scalar tree_4_3_u03_r4_network.node[14].content_store 	decision_ratio[14] 	0.032788732394366
scalar tree_4_3_u03_r4_network.node[15].core_layer 	interests[15] 	12030
scalar tree_4_3_u03_r4_network.node[15].core_layer 	data[15] 	8825
scalar tree_4_3_u03_r4_network.node[15].content_store 	p_hit[15] 	0.26633416458853
scalar tree_4_3_u03_r4_network.node[15].content_store 	hits[15] 	3204
scalar tree_4_3_u03_r4_network.node[15].content_store 	misses[15] 	8826
scalar tree_4_3_u03_r4_network.node[15].content_store 	decision_yes[15] 	295
scalar tree_4_3_u03_r4_network.node[15].content_store 	decision_no[15] 	8530
scalar tree_4_3_u03_r4_network.node[15].content_store 	decision_ratio[15] 	0.03342776203966
scalar tree_4_3_u03_r4_network.node[16].core_layer 	interests[16] 	12048
scalar tree_4_3_u03_r4_network.node[16].core_layer 	data[16] 	8779
scalar tree_4_3_u03_r4_network.node[16].content_store 	p_hit[16] 	0.27133134130146
scalar tree_4_3_u03_r4_network.node[16].content_store 	hits[16] 	3269
scalar tree_4_3_u03_r4_network.node[16].content_store 	misses[16] 	8779
scalar tree_4_3_u03_r4_network.node[16].content_store 	decision_yes[16] 	299
scalar tree_4_3_u03_r4_network.node[16].content_store 	decision_no[16] 	8480
scalar tree_4_3_u03_r4_network.node[16].content_store 	decision_ratio[16] 	0.034058548809659
scalar tree_4_3_u03_r4_network.node[17].core_layer 	interests[17] 	11951
scalar tree_4_3_u03_r4_network.node[17].core_layer 	data[17] 	8755
scalar tree_4_3_u03_r4_network.node[17].content_store 	p_hit[17] 	0.26750899506317
scalar tree_4_3_u03_r4_network.node[17].content_store 	hits[17] 	3197
scalar tree_4_3_u03_r4_network.node[17].content_store 	misses[17] 	8754
scalar tree_4_3_u03_r4_network.node[17].content_store 	decision_yes[17] 	261
scalar tree_4_3_u03_r4_network.node[17].content_store 	decision_no[17] 	8494
scalar tree_4_3_u03_r4_network.node[17].content_store 	decision_ratio[17] 	0.029811536264991
scalar tree_4_3_u03_r4_network.node[18].core_layer 	interests[18] 	11893
scalar tree_4_3_u03_r4_network.node[18].core_layer 	data[18] 	8763
scalar tree_4_3_u03_r4_network.node[18].content_store 	p_hit[18] 	0.2631800218616
scalar tree_4_3_u03_r4_network.node[18].content_store 	hits[18] 	3130
scalar tree_4_3_u03_r4_network.node[18].content_store 	misses[18] 	8763
scalar tree_4_3_u03_r4_network.node[18].content_store 	decision_yes[18] 	283
scalar tree_4_3_u03_r4_network.node[18].content_store 	decision_no[18] 	8480
scalar tree_4_3_u03_r4_network.node[18].content_store 	decision_ratio[18] 	0.032294876183955
scalar tree_4_3_u03_r4_network.node[19].core_layer 	interests[19] 	12092
scalar tree_4_3_u03_r4_network.node[19].core_layer 	data[19] 	8831
scalar tree_4_3_u03_r4_network.node[19].content_store 	p_hit[19] 	0.26968243466755
scalar tree_4_3_u03_r4_network.node[19].content_store 	hits[19] 	3261
scalar tree_4_3_u03_r4_network.node[19].content_store 	misses[19] 	8831
scalar tree_4_3_u03_r4_network.node[19].content_store 	decision_yes[19] 	275
scalar tree_4_3_u03_r4_network.node[19].content_store 	decision_no[19] 	8556
scalar tree_4_3_u03_r4_network.node[19].content_store 	decision_ratio[19] 	0.031140301211641
scalar tree_4_3_u03_r4_network.node[20].core_layer 	interests[20] 	12017
scalar tree_4_3_u03_r4_network.node[20].core_layer 	data[20] 	8861
scalar tree_4_3_u03_r4_network.node[20].content_store 	p_hit[20] 	0.26262794374636
scalar tree_4_3_u03_r4_network.node[20].content_store 	hits[20] 	3156
scalar tree_4_3_u03_r4_network.node[20].content_store 	misses[20] 	8861
scalar tree_4_3_u03_r4_network.node[20].content_store 	decision_yes[20] 	306
scalar tree_4_3_u03_r4_network.node[20].content_store 	decision_no[20] 	8555
scalar tree_4_3_u03_r4_network.node[20].content_store 	decision_ratio[20] 	0.034533348380544
scalar tree_4_3_u03_r4_network.node[21].core_layer 	interests[21] 	11918
scalar tree_4_3_u03_r4_network.node[21].core_layer 	data[21] 	8630
scalar tree_4_3_u03_r4_network.node[21].content_store 	p_hit[21] 	0.27588521564021
scalar tree_4_3_u03_r4_network.node[21].content_store 	hits[21] 	3288
scalar tree_4_3_u03_r4_network.node[21].content_store 	misses[21] 	8630
scalar tree_4_3_u03_r4_network.node[21].content_store 	decision_yes[21] 	280
scalar tree_4_3_u03_r4_network.node[21].content_store 	decision_no[21] 	8350
scalar tree_4_3_u03_r4_network.node[21].content_store 	decision_ratio[21] 	0.032444959443801
scalar tree_4_3_u03_r4_network.node[22].core_layer 	interests[22] 	12034
scalar tree_4_3_u03_r4_network.node[22].core_layer 	data[22] 	8780
scalar tree_4_3_u03_r4_network.node[22].content_store 	p_hit[22] 	0.27040053182649
scalar tree_4_3_u03_r4_network.node[22].content_store 	hits[22] 	3254
scalar tree_4_3_u03_r4_network.node[22].content_store 	misses[22] 	8780
scalar tree_4_3_u03_r4_network.node[22].content_store 	decision_yes[22] 	310
scalar tree_4_3_u03_r4_network.node[22].content_store 	decision_no[22] 	8470
scalar tree_4_3_u03_r4_network.node[22].content_store 	decision_ratio[22] 	0.035307517084282
scalar tree_4_3_u03_r4_network.node[23].core_layer 	interests[23] 	12003
scalar tree_4_3_u03_r4_network.node[23].core_layer 	data[23] 	8758
scalar tree_4_3_u03_r4_network.node[23].content_store 	p_hit[23] 	0.27026576689161
scalar tree_4_3_u03_r4_network.node[23].content_store 	hits[23] 	3244
scalar tree_4_3_u03_r4_network.node[23].content_store 	misses[23] 	8759
scalar tree_4_3_u03_r4_network.node[23].content_store 	decision_yes[23] 	289
scalar tree_4_3_u03_r4_network.node[23].content_store 	decision_no[23] 	8469
scalar tree_4_3_u03_r4_network.node[23].content_store 	decision_ratio[23] 	0.032998401461521
scalar tree_4_3_u03_r4_network.node[24].core_layer 	interests[24] 	11946
scalar tree_4_3_u03_r4_network.node[24].core_layer 	data[24] 	8807
scalar tree_4_3_u03_r4_network.node[24].content_store 	p_hit[24] 	0.26276577934036
scalar tree_4_3_u03_r4_network.node[24].content_store 	hits[24] 	3139
scalar tree_4_3_u03_r4_network.node[24].content_store 	misses[24] 	8807
scalar tree_4_3_u03_r4_network.node[24].content_store 	decision_yes[24] 	309
scalar tree_4_3_u03_r4_network.node[24].content_store 	decision_no[24] 	8498
scalar tree_4_3_u03_r4_network.node[24].content_store 	decision_ratio[24] 	0.035085727262405
scalar tree_4_3_u03_r4_network.node[25].core_layer 	interests[25] 	11901
scalar tree_4_3_u03_r4_network.node[25].core_layer 	data[25] 	8797
scalar tree_4_3_u03_r4_network.node[25].content_store 	p_hit[25] 	0.26081841862028
scalar tree_4_3_u03_r4_network.node[25].content_store 	hits[25] 	3104
scalar tree_4_3_u03_r4_network.node[25].content_store 	misses[25] 	8797
scalar tree_4_3_u03_r4_network.node[25].content_store 	decision_yes[25] 	295
scalar tree_4_3_u03_r4_network.node[25].content_store 	decision_no[25] 	8502
scalar tree_4_3_u03_r4_network.node[25].content_store 	decision_ratio[25] 	0.033534159372513
scalar tree_4_3_u03_r4_network.node[26].core_layer 	interests[26] 	11985
scalar tree_4_3_u03_r4_network.node[26].core_layer 	data[26] 	8733
scalar tree_4_3_u03_r4_network.node[26].content_store 	p_hit[26] 	0.27133917396746
scalar tree_4_3_u03_r4_network.node[26].content_store 	hits[26] 	3252
scalar tree_4_3_u03_r4_network.node[26].content_store 	misses[26] 	8733
scalar tree_4_3_u03_r4_network.node[26].content_store 	decision_yes[26] 	274
scalar tree_4_3_u03_r4_network.node[26].content_store 	decision_no[26] 	8459
scalar tree_4_3_u03_r4_network.node[26].content_store 	decision_ratio[26] 	0.031375243329898
scalar tree_4_3_u03_r4_network.node[27].core_layer 	interests[27] 	11879
scalar tree_4_3_u03_r4_network.node[27].core_layer 	data[27] 	8660
scalar tree_4_3_u03_r4_network.node[27].content_store 	p_hit[27] 	0.27106658809664
scalar tree_4_3_u03_r4_network.node[27].content_store 	hits[27] 	3220
scalar tree_4_3_u03_r4_network.node[27].content_store 	misses[27] 	8659
scalar tree_4_3_u03_r4_network.node[27].content_store 	decision_yes[27] 	293
scalar tree_4_3_u03_r4_network.node[27].content_store 	decision_no[27] 	8367
scalar tree_4_3_u03_r4_network.node[27].content_store 	decision_ratio[27] 	0.033833718244804
scalar tree_4_3_u03_r4_network.node[28].core_layer 	interests[28] 	12225
scalar tree_4_3_u03_r4_network.node[28].core_layer 	data[28] 	8986
scalar tree_4_3_u03_r4_network.node[28].content_store 	p_hit[28] 	0.26494887525562
scalar tree_4_3_u03_r4_network.node[28].content_store 	hits[28] 	3239
scalar tree_4_3_u03_r4_network.node[28].content_store 	misses[28] 	8986
scalar tree_4_3_u03_r4_network.node[28].content_store 	decision_yes[28] 	280
scalar tree_4_3_u03_r4_network.node[28].content_store 	decision_no[28] 	8706
scalar tree_4_3_u03_r4_network.node[28].content_store 	decision_ratio[28] 	0.031159581571333
scalar tree_4_3_u03_r4_network.node[29].core_layer 	interests[29] 	11925
scalar tree_4_3_u03_r4_network.node[29].core_layer 	data[29] 	8720
scalar tree_4_3_u03_r4_network.node[29].content_store 	p_hit[29] 	0.26876310272537
scalar tree_4_3_u03_r4_network.node[29].content_store 	hits[29] 	3205
scalar tree_4_3_u03_r4_network.node[29].content_store 	misses[29] 	8720
scalar tree_4_3_u03_r4_network.node[29].content_store 	decision_yes[29] 	303
scalar tree_4_3_u03_r4_network.node[29].content_store 	decision_no[29] 	8417
scalar tree_4_3_u03_r4_network.node[29].content_store 	decision_ratio[29] 	0.034747706422018
scalar tree_4_3_u03_r4_network.node[30].core_layer 	interests[30] 	11946
scalar tree_4_3_u03_r4_network.node[30].core_layer 	data[30] 	8880
scalar tree_4_3_u03_r4_network.node[30].content_store 	p_hit[30] 	0.25665494726268
scalar tree_4_3_u03_r4_network.node[30].content_store 	hits[30] 	3066
scalar tree_4_3_u03_r4_network.node[30].content_store 	misses[30] 	8880
scalar tree_4_3_u03_r4_network.node[30].content_store 	decision_yes[30] 	293
scalar tree_4_3_u03_r4_network.node[30].content_store 	decision_no[30] 	8587
scalar tree_4_3_u03_r4_network.node[30].content_store 	decision_ratio[30] 	0.032995495495495
scalar tree_4_3_u03_r4_network.node[31].core_layer 	interests[31] 	11953
scalar tree_4_3_u03_r4_network.node[31].core_layer 	data[31] 	8882
scalar tree_4_3_u03_r4_network.node[31].content_store 	p_hit[31] 	0.25692294821384
scalar tree_4_3_u03_r4_network.node[31].content_store 	hits[31] 	3071
scalar tree_4_3_u03_r4_network.node[31].content_store 	misses[31] 	8882
scalar tree_4_3_u03_r4_network.node[31].content_store 	decision_yes[31] 	263
scalar tree_4_3_u03_r4_network.node[31].content_store 	decision_no[31] 	8619
scalar tree_4_3_u03_r4_network.node[31].content_store 	decision_ratio[31] 	0.029610448097275
scalar tree_4_3_u03_r4_network.node[32].core_layer 	interests[32] 	12124
scalar tree_4_3_u03_r4_network.node[32].core_layer 	data[32] 	8927
scalar tree_4_3_u03_r4_network.node[32].content_store 	p_hit[32] 	0.26377433190366
scalar tree_4_3_u03_r4_network.node[32].content_store 	hits[32] 	3198
scalar tree_4_3_u03_r4_network.node[32].content_store 	misses[32] 	8926
scalar tree_4_3_u03_r4_network.node[32].content_store 	decision_yes[32] 	250
scalar tree_4_3_u03_r4_network.node[32].content_store 	decision_no[32] 	8677
scalar tree_4_3_u03_r4_network.node[32].content_store 	decision_ratio[32] 	0.028004928867481
scalar tree_4_3_u03_r4_network.node[33].core_layer 	interests[33] 	12083
scalar tree_4_3_u03_r4_network.node[33].core_layer 	data[33] 	8811
scalar tree_4_3_u03_r4_network.node[33].content_store 	p_hit[33] 	0.2707109161632
scalar tree_4_3_u03_r4_network.node[33].content_store 	hits[33] 	3271
scalar tree_4_3_u03_r4_network.node[33].content_store 	misses[33] 	8812
scalar tree_4_3_u03_r4_network.node[33].content_store 	decision_yes[33] 	248
scalar tree_4_3_u03_r4_network.node[33].content_store 	decision_no[33] 	8563
scalar tree_4_3_u03_r4_network.node[33].content_store 	decision_ratio[33] 	0.028146634888208
scalar tree_4_3_u03_r4_network.node[34].core_layer 	interests[34] 	12036
scalar tree_4_3_u03_r4_network.node[34].core_layer 	data[34] 	8863
scalar tree_4_3_u03_r4_network.node[34].content_store 	p_hit[34] 	0.26354270521768
scalar tree_4_3_u03_r4_network.node[34].content_store 	hits[34] 	3172
scalar tree_4_3_u03_r4_network.node[34].content_store 	misses[34] 	8864
scalar tree_4_3_u03_r4_network.node[34].content_store 	decision_yes[34] 	271
scalar tree_4_3_u03_r4_network.node[34].content_store 	decision_no[34] 	8592
scalar tree_4_3_u03_r4_network.node[34].content_store 	decision_ratio[34] 	0.030576554214149
scalar tree_4_3_u03_r4_network.node[35].core_layer 	interests[35] 	12057
scalar tree_4_3_u03_r4_network.node[35].core_layer 	data[35] 	8843
scalar tree_4_3_u03_r4_network.node[35].content_store 	p_hit[35] 	0.26656713942108
scalar tree_4_3_u03_r4_network.node[35].content_store 	hits[35] 	3214
scalar tree_4_3_u03_r4_network.node[35].content_store 	misses[35] 	8843
scalar tree_4_3_u03_r4_network.node[35].content_store 	decision_yes[35] 	275
scalar tree_4_3_u03_r4_network.node[35].content_store 	decision_no[35] 	8568
scalar tree_4_3_u03_r4_network.node[35].content_store 	decision_ratio[35] 	0.031098043650345
scalar tree_4_3_u03_r4_network.node[36].core_layer 	interests[36] 	11850
scalar tree_4_3_u03_r4_network.node[36].core_layer 	data[36] 	8773
scalar tree_4_3_u03_r4_network.node[36].content_store 	p_hit[36] 	0.25966244725738
scalar tree_4_3_u03_r4_network.node[36].content_store 	hits[36] 	3077
scalar tree_4_3_u03_r4_network.node[36].content_store 	misses[36] 	8773
scalar tree_4_3_u03_r4_network.node[36].content_store 	decision_yes[36] 	283
scalar tree_4_3_u03_r4_network.node[36].content_store 	decision_no[36] 	8490
scalar tree_4_3_u03_r4_network.node[36].content_store 	decision_ratio[36] 	0.032258064516129
scalar tree_4_3_u03_r4_network.node[37].core_layer 	interests[37] 	12230
scalar tree_4_3_u03_r4_network.node[37].core_layer 	data[37] 	9049
scalar tree_4_3_u03_r4_network.node[37].content_store 	p_hit[37] 	0.26009811937858
scalar tree_4_3_u03_r4_network.node[37].content_store 	hits[37] 	3181
scalar tree_4_3_u03_r4_network.node[37].content_store 	misses[37] 	9049
scalar tree_4_3_u03_r4_network.node[37].content_store 	decision_yes[37] 	234
scalar tree_4_3_u03_r4_network.node[37].content_store 	decision_no[37] 	8815
scalar tree_4_3_u03_r4_network.node[37].content_store 	decision_ratio[37] 	0.025859210962537
scalar tree_4_3_u03_r4_network.node[38].core_layer 	interests[38] 	12131
scalar tree_4_3_u03_r4_network.node[38].core_layer 	data[38] 	8936
scalar tree_4_3_u03_r4_network.node[38].content_store 	p_hit[38] 	0.26337482482895
scalar tree_4_3_u03_r4_network.node[38].content_store 	hits[38] 	3195
scalar tree_4_3_u03_r4_network.node[38].content_store 	misses[38] 	8936
scalar tree_4_3_u03_r4_network.node[38].content_store 	decision_yes[38] 	312
scalar tree_4_3_u03_r4_network.node[38].content_store 	decision_no[38] 	8624
scalar tree_4_3_u03_r4_network.node[38].content_store 	decision_ratio[38] 	0.034914950760967
scalar tree_4_3_u03_r4_network.node[39].core_layer 	interests[39] 	12114
scalar tree_4_3_u03_r4_network.node[39].core_layer 	data[39] 	8909
scalar tree_4_3_u03_r4_network.node[39].content_store 	p_hit[39] 	0.26456991910187
scalar tree_4_3_u03_r4_network.node[39].content_store 	hits[39] 	3205
scalar tree_4_3_u03_r4_network.node[39].content_store 	misses[39] 	8909
scalar tree_4_3_u03_r4_network.node[39].content_store 	decision_yes[39] 	233
scalar tree_4_3_u03_r4_network.node[39].content_store 	decision_no[39] 	8676
scalar tree_4_3_u03_r4_network.node[39].content_store 	decision_ratio[39] 	0.026153328095185
scalar tree_4_3_u03_r4_network.client[13] 	hdistance[13] 	2.8322147651007
scalar tree_4_3_u03_r4_network.client[13] 	downloads[13] 	12218
scalar tree_4_3_u03_r4_network.client[13] 	avg_time[13] 	0.004286178922
scalar tree_4_3_u03_r4_network.client[14] 	hdistance[14] 	2.8482224627425
scalar tree_4_3_u03_r4_network.client[14] 	downloads[14] 	12011
scalar tree_4_3_u03_r4_network.client[14] 	avg_time[14] 	0.004308047958
scalar tree_4_3_u03_r4_network.client[15] 	hdistance[15] 	2.8279990024108
scalar tree_4_3_u03_r4_network.client[15] 	downloads[15] 	12029
scalar tree_4_3_u03_r4_network.client[15] 	avg_time[15] 	0.004277326778
scalar tree_4_3_u03_r4_network.client[16] 	hdistance[16] 	2.8095119521912
scalar tree_4_3_u03_r4_network.client[16] 	downloads[16] 	12048
scalar tree_4_3_u03_r4_network.client[16] 	avg_time[16] 	0.004249000978
scalar tree_4_3_u03_r4_network.client[17] 	hdistance[17] 	2.8288989290495
scalar tree_4_3_u03_r4_network.client[17] 	downloads[17] 	11952
scalar tree_4_3_u03_r4_network.client[17] 	avg_time[17] 	0.004279113483
scalar tree_4_3_u03_r4_network.client[18] 	hdistance[18] 	2.8381400824014
scalar tree_4_3_u03_r4_network.client[18] 	downloads[18] 	11893
scalar tree_4_3_u03_r4_network.client[18] 	avg_time[18] 	0.004294236161
scalar tree_4_3_u03_r4_network.client[19] 	hdistance[19] 	2.819798213695
scalar tree_4_3_u03_r4_network.client[19] 	downloads[19] 	12092
scalar tree_4_3_u03_r4_network.client[19] 	avg_time[19] 	0.004264965567
scalar tree_4_3_u03_r4_network.client[20] 	hdistance[20] 	2.8369809436632
scalar tree_4_3_u03_r4_network.client[20] 	downloads[20] 	12017
scalar tree_4_3_u03_r4_network.client[20] 	avg_time[20] 	0.00429408041
scalar tree_4_3_u03_r4_network.client[21] 	hdistance[21] 	2.7862896459137
scalar tree_4_3_u03_r4_network.client[21] 	downloads[21] 	11918
scalar tree_4_3_u03_r4_network.client[21] 	avg_time[21] 	0.004218490064
scalar tree_4_3_u03_r4_network.client[22] 	hdistance[22] 	2.8053847432275
scalar tree_4_3_u03_r4_network.client[22] 	downloads[22] 	12034
scalar tree_4_3_u03_r4_network.client[22] 	avg_time[22] 	0.004246372108
scalar tree_4_3_u03_r4_network.client[23] 	hdistance[23] 	2.8134477587069
scalar tree_4_3_u03_r4_network.client[23] 	downloads[23] 	12002
scalar tree_4_3_u03_r4_network.client[23] 	avg_time[23] 	0.004254899412
scalar tree_4_3_u03_r4_network.client[24] 	hdistance[24] 	2.834170433618
scalar tree_4_3_u03_r4_network.client[24] 	downloads[24] 	11946
scalar tree_4_3_u03_r4_network.client[24] 	avg_time[24] 	0.004289298851
scalar tree_4_3_u03_r4_network.client[25] 	hdistance[25] 	2.8458953029157
scalar tree_4_3_u03_r4_network.client[25] 	downloads[25] 	11901
scalar tree_4_3_u03_r4_network.client[25] 	avg_time[25] 	0.004306907043
scalar tree_4_3_u03_r4_network.client[26] 	hdistance[26] 	2.8122653316646
scalar tree_4_3_u03_r4_network.client[26] 	downloads[26] 	11985
scalar tree_4_3_u03_r4_network.client[26] 	avg_time[26] 	0.004253288346
scalar tree_4_3_u03_r4_network.client[27] 	hdistance[27] 	2.8105218855219
scalar tree_4_3_u03_r4_network.client[27] 	downloads[27] 	11880
scalar tree_4_3_u03_r4_network.client[27] 	avg_time[27] 	0.004251512178
scalar tree_4_3_u03_r4_network.client[28] 	hdistance[28] 	2.838445807771
scalar tree_4_3_u03_r4_network.client[28] 	downloads[28] 	12225
scalar tree_4_3_u03_r4_network.client[28] 	avg_time[28] 	0.004292021513
scalar tree_4_3_u03_r4_network.client[29] 	hdistance[29] 	2.8155136268344
scalar tree_4_3_u03_r4_network.client[29] 	downloads[29] 	11925
scalar tree_4_3_u03_r4_network.client[29] 	avg_time[29] 	0.00425894876
scalar tree_4_3_u03_r4_network.client[30] 	hdistance[30] 	2.8642223338356
scalar tree_4_3_u03_r4_network.client[30] 	downloads[30] 	11946
scalar tree_4_3_u03_r4_network.client[30] 	avg_time[30] 	0.004334230526
scalar tree_4_3_u03_r4_network.client[31] 	hdistance[31] 	2.8786915418723
scalar tree_4_3_u03_r4_network.client[31] 	downloads[31] 	11953
scalar tree_4_3_u03_r4_network.client[31] 	avg_time[31] 	0.004350034681
scalar tree_4_3_u03_r4_network.client[32] 	hdistance[32] 	2.8583092783505
scalar tree_4_3_u03_r4_network.client[32] 	downloads[32] 	12125
scalar tree_4_3_u03_r4_network.client[32] 	avg_time[32] 	0.004316533071
scalar tree_4_3_u03_r4_network.client[33] 	hdistance[33] 	2.8302433371958
scalar tree_4_3_u03_r4_network.client[33] 	downloads[33] 	12082
scalar tree_4_3_u03_r4_network.client[33] 	avg_time[33] 	0.004274785931
scalar tree_4_3_u03_r4_network.client[34] 	hdistance[34] 	2.8495222268384
scalar tree_4_3_u03_r4_network.client[34] 	downloads[34] 	12035
scalar tree_4_3_u03_r4_network.client[34] 	avg_time[34] 	0.004307204548
scalar tree_4_3_u03_r4_network.client[35] 	hdistance[35] 	2.8349506510741
scalar tree_4_3_u03_r4_network.client[35] 	downloads[35] 	12057
scalar tree_4_3_u03_r4_network.client[35] 	avg_time[35] 	0.004285308408
scalar tree_4_3_u03_r4_network.client[36] 	hdistance[36] 	2.8614345991561
scalar tree_4_3_u03_r4_network.client[36] 	downloads[36] 	11850
scalar tree_4_3_u03_r4_network.client[36] 	avg_time[36] 	0.004324845809
scalar tree_4_3_u03_r4_network.client[37] 	hdistance[37] 	2.8717906786591
scalar tree_4_3_u03_r4_network.client[37] 	downloads[37] 	12230
scalar tree_4_3_u03_r4_network.client[37] 	avg_time[37] 	0.004340961798
scalar tree_4_3_u03_r4_network.client[38] 	hdistance[38] 	2.8398318357926
scalar tree_4_3_u03_r4_network.client[38] 	downloads[38] 	12131
scalar tree_4_3_u03_r4_network.client[38] 	avg_time[38] 	0.004295768115
scalar tree_4_3_u03_r4_network.client[39] 	hdistance[39] 	2.8552088492653
scalar tree_4_3_u03_r4_network.client[39] 	downloads[39] 	12114
scalar tree_4_3_u03_r4_network.client[39] 	avg_time[39] 	0.004314344029
