version 2
run General-64-20160820-07:45:29-856
attr a 0.9
attr cd lcd
attr configname General
attr cr lru
attr datetime 20160820-07:45:29
attr experiment General
attr fsize 1
attr inifile hw5115/scenario_A/SPR-LCD.ini
attr iterationvars "$name=tree_4_3, $un=03, $rep=5, $cd=lcd, $cr=lru, $fsize=1, $a=0.9, $sl=spr, $ttl=1000, $variance=0.05"
attr iterationvars2 "$name=tree_4_3, $un=03, $rep=5, $cd=lcd, $cr=lru, $fsize=1, $a=0.9, $sl=spr, $ttl=1000, $variance=0.05, $repetition=0"
attr measurement "$name=tree_4_3, $un=03, $rep=5, $cd=lcd, $cr=lru, $fsize=1, $a=0.9, $sl=spr, $ttl=1000, $variance=0.05"
attr name tree_4_3
attr network networks.${name}_u${un}_r${rep}_network
attr processid 856
attr rep 5
attr repetition 0
attr replication #0
attr resultdir results
attr runnumber 64
attr seedset 5
attr sl spr
attr ttl 1000
attr un 03
attr variance 0.05

scalar . 	a 	0.9
scalar . 	fsize 	1
scalar . 	rep 	5
scalar . 	ttl 	1000
scalar . 	un 	03
scalar . 	variance 	0.05
scalar tree_4_3_u03_r5_network.content_distribution 	repo-0 	0
scalar tree_4_3_u03_r5_network.content_distribution 	client-0 	13
scalar tree_4_3_u03_r5_network.content_distribution 	client-1 	14
scalar tree_4_3_u03_r5_network.content_distribution 	client-2 	15
scalar tree_4_3_u03_r5_network.content_distribution 	client-3 	16
scalar tree_4_3_u03_r5_network.content_distribution 	client-4 	17
scalar tree_4_3_u03_r5_network.content_distribution 	client-5 	18
scalar tree_4_3_u03_r5_network.content_distribution 	client-6 	19
scalar tree_4_3_u03_r5_network.content_distribution 	client-7 	20
scalar tree_4_3_u03_r5_network.content_distribution 	client-8 	21
scalar tree_4_3_u03_r5_network.content_distribution 	client-9 	22
scalar tree_4_3_u03_r5_network.content_distribution 	client-10 	23
scalar tree_4_3_u03_r5_network.content_distribution 	client-11 	24
scalar tree_4_3_u03_r5_network.content_distribution 	client-12 	25
scalar tree_4_3_u03_r5_network.content_distribution 	client-13 	26
scalar tree_4_3_u03_r5_network.content_distribution 	client-14 	27
scalar tree_4_3_u03_r5_network.content_distribution 	client-15 	28
scalar tree_4_3_u03_r5_network.content_distribution 	client-16 	29
scalar tree_4_3_u03_r5_network.content_distribution 	client-17 	30
scalar tree_4_3_u03_r5_network.content_distribution 	client-18 	31
scalar tree_4_3_u03_r5_network.content_distribution 	client-19 	32
scalar tree_4_3_u03_r5_network.content_distribution 	client-20 	33
scalar tree_4_3_u03_r5_network.content_distribution 	client-21 	34
scalar tree_4_3_u03_r5_network.content_distribution 	client-22 	35
scalar tree_4_3_u03_r5_network.content_distribution 	client-23 	36
scalar tree_4_3_u03_r5_network.content_distribution 	client-24 	37
scalar tree_4_3_u03_r5_network.content_distribution 	client-25 	38
scalar tree_4_3_u03_r5_network.content_distribution 	client-26 	39
scalar tree_4_3_u03_r5_network.content_distribution 	repo-0_card 	100000
scalar tree_4_3_u03_r5_network.content_distribution 	repo-0_price 	0
scalar tree_4_3_u03_r5_network.statistics 	stabilization_time 	1819.2
scalar tree_4_3_u03_r5_network.statistics 	p_hit 	0.18765579028062
scalar tree_4_3_u03_r5_network.statistics 	interests 	25501.425
scalar tree_4_3_u03_r5_network.statistics 	data 	17393.075
scalar tree_4_3_u03_r5_network.statistics 	hdistance 	2.8376792961254
scalar tree_4_3_u03_r5_network.statistics 	avg_time 	0.004290246819
scalar tree_4_3_u03_r5_network.statistics 	downloads 	324332
scalar tree_4_3_u03_r5_network.statistics 	total_cost 	0
scalar tree_4_3_u03_r5_network.statistics 	total_replicas 	100000
scalar tree_4_3_u03_r5_network.statistics 	inner_hit 	0.30754288815165
scalar tree_4_3_u03_r5_network.node[0].core_layer 	interests[0] 	226764
scalar tree_4_3_u03_r5_network.node[0].core_layer 	repo_load[0] 	224586
scalar tree_4_3_u03_r5_network.node[0].core_layer 	data[0] 	0
scalar tree_4_3_u03_r5_network.node[0].core_layer 	repo_int[0] 	224586
scalar tree_4_3_u03_r5_network.node[0].content_store 	p_hit[0] 	0.0096046991585966
scalar tree_4_3_u03_r5_network.node[0].content_store 	hits[0] 	2178
scalar tree_4_3_u03_r5_network.node[0].content_store 	misses[0] 	224586
scalar tree_4_3_u03_r5_network.node[0].content_store 	decision_yes[0] 	224586
scalar tree_4_3_u03_r5_network.node[0].content_store 	decision_no[0] 	0
scalar tree_4_3_u03_r5_network.node[0].content_store 	decision_ratio[0] 	1
scalar tree_4_3_u03_r5_network.node[1].core_layer 	interests[1] 	110791
scalar tree_4_3_u03_r5_network.node[1].core_layer 	data[1] 	108712
scalar tree_4_3_u03_r5_network.node[1].content_store 	p_hit[1] 	0.018719932124451
scalar tree_4_3_u03_r5_network.node[1].content_store 	hits[1] 	2074
scalar tree_4_3_u03_r5_network.node[1].content_store 	misses[1] 	108717
scalar tree_4_3_u03_r5_network.node[1].content_store 	decision_yes[1] 	1016
scalar tree_4_3_u03_r5_network.node[1].content_store 	decision_no[1] 	107696
scalar tree_4_3_u03_r5_network.node[1].content_store 	decision_ratio[1] 	0.0093457943925234
scalar tree_4_3_u03_r5_network.node[2].core_layer 	interests[2] 	42736
scalar tree_4_3_u03_r5_network.node[2].core_layer 	data[2] 	42103
scalar tree_4_3_u03_r5_network.node[2].content_store 	p_hit[2] 	0.014811868214152
scalar tree_4_3_u03_r5_network.node[2].content_store 	hits[2] 	633
scalar tree_4_3_u03_r5_network.node[2].content_store 	misses[2] 	42103
scalar tree_4_3_u03_r5_network.node[2].content_store 	decision_yes[2] 	445
scalar tree_4_3_u03_r5_network.node[2].content_store 	decision_no[2] 	41658
scalar tree_4_3_u03_r5_network.node[2].content_store 	decision_ratio[2] 	0.010569318100848
scalar tree_4_3_u03_r5_network.node[3].core_layer 	interests[3] 	77164
scalar tree_4_3_u03_r5_network.node[3].core_layer 	data[3] 	75949
scalar tree_4_3_u03_r5_network.node[3].content_store 	p_hit[3] 	0.015693846871598
scalar tree_4_3_u03_r5_network.node[3].content_store 	hits[3] 	1211
scalar tree_4_3_u03_r5_network.node[3].content_store 	misses[3] 	75953
scalar tree_4_3_u03_r5_network.node[3].content_store 	decision_yes[3] 	717
scalar tree_4_3_u03_r5_network.node[3].content_store 	decision_no[3] 	75232
scalar tree_4_3_u03_r5_network.node[3].content_store 	decision_ratio[3] 	0.0094405456293039
scalar tree_4_3_u03_r5_network.node[4].core_layer 	interests[4] 	26846
scalar tree_4_3_u03_r5_network.node[4].core_layer 	data[4] 	25947
scalar tree_4_3_u03_r5_network.node[4].content_store 	p_hit[4] 	0.033450048424346
scalar tree_4_3_u03_r5_network.node[4].content_store 	hits[4] 	898
scalar tree_4_3_u03_r5_network.node[4].content_store 	misses[4] 	25948
scalar tree_4_3_u03_r5_network.node[4].content_store 	decision_yes[4] 	480
scalar tree_4_3_u03_r5_network.node[4].content_store 	decision_no[4] 	25467
scalar tree_4_3_u03_r5_network.node[4].content_store 	decision_ratio[4] 	0.018499248468031
scalar tree_4_3_u03_r5_network.node[5].core_layer 	interests[5] 	26361
scalar tree_4_3_u03_r5_network.node[5].core_layer 	data[5] 	25486
scalar tree_4_3_u03_r5_network.node[5].content_store 	p_hit[5] 	0.033155039641895
scalar tree_4_3_u03_r5_network.node[5].content_store 	hits[5] 	874
scalar tree_4_3_u03_r5_network.node[5].content_store 	misses[5] 	25487
scalar tree_4_3_u03_r5_network.node[5].content_store 	decision_yes[5] 	496
scalar tree_4_3_u03_r5_network.node[5].content_store 	decision_no[5] 	24990
scalar tree_4_3_u03_r5_network.node[5].content_store 	decision_ratio[5] 	0.019461665227968
scalar tree_4_3_u03_r5_network.node[6].core_layer 	interests[6] 	26242
scalar tree_4_3_u03_r5_network.node[6].core_layer 	data[6] 	25359
scalar tree_4_3_u03_r5_network.node[6].content_store 	p_hit[6] 	0.033648349973325
scalar tree_4_3_u03_r5_network.node[6].content_store 	hits[6] 	883
scalar tree_4_3_u03_r5_network.node[6].content_store 	misses[6] 	25359
scalar tree_4_3_u03_r5_network.node[6].content_store 	decision_yes[6] 	523
scalar tree_4_3_u03_r5_network.node[6].content_store 	decision_no[6] 	24836
scalar tree_4_3_u03_r5_network.node[6].content_store 	decision_ratio[6] 	0.020623841634134
scalar tree_4_3_u03_r5_network.node[7].core_layer 	interests[7] 	35202
scalar tree_4_3_u03_r5_network.node[7].core_layer 	data[7] 	33999
scalar tree_4_3_u03_r5_network.node[7].content_store 	p_hit[7] 	0.034145787171183
scalar tree_4_3_u03_r5_network.node[7].content_store 	hits[7] 	1202
scalar tree_4_3_u03_r5_network.node[7].content_store 	misses[7] 	34000
scalar tree_4_3_u03_r5_network.node[7].content_store 	decision_yes[7] 	575
scalar tree_4_3_u03_r5_network.node[7].content_store 	decision_no[7] 	33424
scalar tree_4_3_u03_r5_network.node[7].content_store 	decision_ratio[7] 	0.016912262125357
scalar tree_4_3_u03_r5_network.node[8].core_layer 	interests[8] 	26400
scalar tree_4_3_u03_r5_network.node[8].core_layer 	data[8] 	25660
scalar tree_4_3_u03_r5_network.node[8].content_store 	p_hit[8] 	0.028068181818182
scalar tree_4_3_u03_r5_network.node[8].content_store 	hits[8] 	741
scalar tree_4_3_u03_r5_network.node[8].content_store 	misses[8] 	25659
scalar tree_4_3_u03_r5_network.node[8].content_store 	decision_yes[8] 	329
scalar tree_4_3_u03_r5_network.node[8].content_store 	decision_no[8] 	25331
scalar tree_4_3_u03_r5_network.node[8].content_store 	decision_ratio[8] 	0.01282151208106
scalar tree_4_3_u03_r5_network.node[9].core_layer 	interests[9] 	17566
scalar tree_4_3_u03_r5_network.node[9].core_layer 	data[9] 	17076
scalar tree_4_3_u03_r5_network.node[9].content_store 	p_hit[9] 	0.027894796766481
scalar tree_4_3_u03_r5_network.node[9].content_store 	hits[9] 	490
scalar tree_4_3_u03_r5_network.node[9].content_store 	misses[9] 	17076
scalar tree_4_3_u03_r5_network.node[9].content_store 	decision_yes[9] 	304
scalar tree_4_3_u03_r5_network.node[9].content_store 	decision_no[9] 	16772
scalar tree_4_3_u03_r5_network.node[9].content_store 	decision_ratio[9] 	0.017802764113375
scalar tree_4_3_u03_r5_network.node[10].core_layer 	interests[10] 	35308
scalar tree_4_3_u03_r5_network.node[10].core_layer 	data[10] 	34201
scalar tree_4_3_u03_r5_network.node[10].content_store 	p_hit[10] 	0.031324345757335
scalar tree_4_3_u03_r5_network.node[10].content_store 	hits[10] 	1106
scalar tree_4_3_u03_r5_network.node[10].content_store 	misses[10] 	34202
scalar tree_4_3_u03_r5_network.node[10].content_store 	decision_yes[10] 	496
scalar tree_4_3_u03_r5_network.node[10].content_store 	decision_no[10] 	33705
scalar tree_4_3_u03_r5_network.node[10].content_store 	decision_ratio[10] 	0.014502499926903
scalar tree_4_3_u03_r5_network.node[11].core_layer 	interests[11] 	35485
scalar tree_4_3_u03_r5_network.node[11].core_layer 	data[11] 	34370
scalar tree_4_3_u03_r5_network.node[11].content_store 	p_hit[11] 	0.031393546568973
scalar tree_4_3_u03_r5_network.node[11].content_store 	hits[11] 	1114
scalar tree_4_3_u03_r5_network.node[11].content_store 	misses[11] 	34371
scalar tree_4_3_u03_r5_network.node[11].content_store 	decision_yes[11] 	492
scalar tree_4_3_u03_r5_network.node[11].content_store 	decision_no[11] 	33878
scalar tree_4_3_u03_r5_network.node[11].content_store 	decision_ratio[11] 	0.014314809426826
scalar tree_4_3_u03_r5_network.node[12].core_layer 	interests[12] 	8856
scalar tree_4_3_u03_r5_network.node[12].core_layer 	data[12] 	8593
scalar tree_4_3_u03_r5_network.node[12].content_store 	p_hit[12] 	0.029697380307136
scalar tree_4_3_u03_r5_network.node[12].content_store 	hits[12] 	263
scalar tree_4_3_u03_r5_network.node[12].content_store 	misses[12] 	8593
scalar tree_4_3_u03_r5_network.node[12].content_store 	decision_yes[12] 	223
scalar tree_4_3_u03_r5_network.node[12].content_store 	decision_no[12] 	8370
scalar tree_4_3_u03_r5_network.node[12].content_store 	decision_ratio[12] 	0.025951355754684
scalar tree_4_3_u03_r5_network.node[13].core_layer 	interests[13] 	12303
scalar tree_4_3_u03_r5_network.node[13].core_layer 	data[13] 	9129
scalar tree_4_3_u03_r5_network.node[13].content_store 	p_hit[13] 	0.25782329513127
scalar tree_4_3_u03_r5_network.node[13].content_store 	hits[13] 	3172
scalar tree_4_3_u03_r5_network.node[13].content_store 	misses[13] 	9131
scalar tree_4_3_u03_r5_network.node[13].content_store 	decision_yes[13] 	305
scalar tree_4_3_u03_r5_network.node[13].content_store 	decision_no[13] 	8824
scalar tree_4_3_u03_r5_network.node[13].content_store 	decision_ratio[13] 	0.033410012049513
scalar tree_4_3_u03_r5_network.node[14].core_layer 	interests[14] 	12066
scalar tree_4_3_u03_r5_network.node[14].core_layer 	data[14] 	8834
scalar tree_4_3_u03_r5_network.node[14].content_store 	p_hit[14] 	0.26786010276811
scalar tree_4_3_u03_r5_network.node[14].content_store 	hits[14] 	3232
scalar tree_4_3_u03_r5_network.node[14].content_store 	misses[14] 	8834
scalar tree_4_3_u03_r5_network.node[14].content_store 	decision_yes[14] 	307
scalar tree_4_3_u03_r5_network.node[14].content_store 	decision_no[14] 	8527
scalar tree_4_3_u03_r5_network.node[14].content_store 	decision_ratio[14] 	0.034752094181571
scalar tree_4_3_u03_r5_network.node[15].core_layer 	interests[15] 	12120
scalar tree_4_3_u03_r5_network.node[15].core_layer 	data[15] 	8883
scalar tree_4_3_u03_r5_network.node[15].content_store 	p_hit[15] 	0.26707920792079
scalar tree_4_3_u03_r5_network.node[15].content_store 	hits[15] 	3237
scalar tree_4_3_u03_r5_network.node[15].content_store 	misses[15] 	8883
scalar tree_4_3_u03_r5_network.node[15].content_store 	decision_yes[15] 	286
scalar tree_4_3_u03_r5_network.node[15].content_store 	decision_no[15] 	8597
scalar tree_4_3_u03_r5_network.node[15].content_store 	decision_ratio[15] 	0.03219633006867
scalar tree_4_3_u03_r5_network.node[16].core_layer 	interests[16] 	11766
scalar tree_4_3_u03_r5_network.node[16].core_layer 	data[16] 	8656
scalar tree_4_3_u03_r5_network.node[16].content_store 	p_hit[16] 	0.26432092469828
scalar tree_4_3_u03_r5_network.node[16].content_store 	hits[16] 	3110
scalar tree_4_3_u03_r5_network.node[16].content_store 	misses[16] 	8656
scalar tree_4_3_u03_r5_network.node[16].content_store 	decision_yes[16] 	286
scalar tree_4_3_u03_r5_network.node[16].content_store 	decision_no[16] 	8370
scalar tree_4_3_u03_r5_network.node[16].content_store 	decision_ratio[16] 	0.033040665434381
scalar tree_4_3_u03_r5_network.node[17].core_layer 	interests[17] 	12202
scalar tree_4_3_u03_r5_network.node[17].core_layer 	data[17] 	8904
scalar tree_4_3_u03_r5_network.node[17].content_store 	p_hit[17] 	0.27028356007212
scalar tree_4_3_u03_r5_network.node[17].content_store 	hits[17] 	3298
scalar tree_4_3_u03_r5_network.node[17].content_store 	misses[17] 	8904
scalar tree_4_3_u03_r5_network.node[17].content_store 	decision_yes[17] 	302
scalar tree_4_3_u03_r5_network.node[17].content_store 	decision_no[17] 	8602
scalar tree_4_3_u03_r5_network.node[17].content_store 	decision_ratio[17] 	0.033917340521114
scalar tree_4_3_u03_r5_network.node[18].core_layer 	interests[18] 	11927
scalar tree_4_3_u03_r5_network.node[18].core_layer 	data[18] 	8802
scalar tree_4_3_u03_r5_network.node[18].content_store 	p_hit[18] 	0.26201056426595
scalar tree_4_3_u03_r5_network.node[18].content_store 	hits[18] 	3125
scalar tree_4_3_u03_r5_network.node[18].content_store 	misses[18] 	8802
scalar tree_4_3_u03_r5_network.node[18].content_store 	decision_yes[18] 	286
scalar tree_4_3_u03_r5_network.node[18].content_store 	decision_no[18] 	8516
scalar tree_4_3_u03_r5_network.node[18].content_store 	decision_ratio[18] 	0.032492615314701
scalar tree_4_3_u03_r5_network.node[19].core_layer 	interests[19] 	11962
scalar tree_4_3_u03_r5_network.node[19].core_layer 	data[19] 	8856
scalar tree_4_3_u03_r5_network.node[19].content_store 	p_hit[19] 	0.25973917405116
scalar tree_4_3_u03_r5_network.node[19].content_store 	hits[19] 	3107
scalar tree_4_3_u03_r5_network.node[19].content_store 	misses[19] 	8855
scalar tree_4_3_u03_r5_network.node[19].content_store 	decision_yes[19] 	312
scalar tree_4_3_u03_r5_network.node[19].content_store 	decision_no[19] 	8544
scalar tree_4_3_u03_r5_network.node[19].content_store 	decision_ratio[19] 	0.035230352303523
scalar tree_4_3_u03_r5_network.node[20].core_layer 	interests[20] 	11953
scalar tree_4_3_u03_r5_network.node[20].core_layer 	data[20] 	8645
scalar tree_4_3_u03_r5_network.node[20].content_store 	p_hit[20] 	0.27675060654229
scalar tree_4_3_u03_r5_network.node[20].content_store 	hits[20] 	3308
scalar tree_4_3_u03_r5_network.node[20].content_store 	misses[20] 	8645
scalar tree_4_3_u03_r5_network.node[20].content_store 	decision_yes[20] 	279
scalar tree_4_3_u03_r5_network.node[20].content_store 	decision_no[20] 	8366
scalar tree_4_3_u03_r5_network.node[20].content_store 	decision_ratio[20] 	0.032272990167727
scalar tree_4_3_u03_r5_network.node[21].core_layer 	interests[21] 	12018
scalar tree_4_3_u03_r5_network.node[21].core_layer 	data[21] 	8742
scalar tree_4_3_u03_r5_network.node[21].content_store 	p_hit[21] 	0.27259111333001
scalar tree_4_3_u03_r5_network.node[21].content_store 	hits[21] 	3276
scalar tree_4_3_u03_r5_network.node[21].content_store 	misses[21] 	8742
scalar tree_4_3_u03_r5_network.node[21].content_store 	decision_yes[21] 	292
scalar tree_4_3_u03_r5_network.node[21].content_store 	decision_no[21] 	8450
scalar tree_4_3_u03_r5_network.node[21].content_store 	decision_ratio[21] 	0.033401967513155
scalar tree_4_3_u03_r5_network.node[22].core_layer 	interests[22] 	11977
scalar tree_4_3_u03_r5_network.node[22].core_layer 	data[22] 	8771
scalar tree_4_3_u03_r5_network.node[22].content_store 	p_hit[22] 	0.26759622610003
scalar tree_4_3_u03_r5_network.node[22].content_store 	hits[22] 	3205
scalar tree_4_3_u03_r5_network.node[22].content_store 	misses[22] 	8772
scalar tree_4_3_u03_r5_network.node[22].content_store 	decision_yes[22] 	291
scalar tree_4_3_u03_r5_network.node[22].content_store 	decision_no[22] 	8480
scalar tree_4_3_u03_r5_network.node[22].content_store 	decision_ratio[22] 	0.033177516816783
scalar tree_4_3_u03_r5_network.node[23].core_layer 	interests[23] 	12133
scalar tree_4_3_u03_r5_network.node[23].core_layer 	data[23] 	8904
scalar tree_4_3_u03_r5_network.node[23].content_store 	p_hit[23] 	0.26613368499135
scalar tree_4_3_u03_r5_network.node[23].content_store 	hits[23] 	3229
scalar tree_4_3_u03_r5_network.node[23].content_store 	misses[23] 	8904
scalar tree_4_3_u03_r5_network.node[23].content_store 	decision_yes[23] 	317
scalar tree_4_3_u03_r5_network.node[23].content_store 	decision_no[23] 	8587
scalar tree_4_3_u03_r5_network.node[23].content_store 	decision_ratio[23] 	0.035601976639712
scalar tree_4_3_u03_r5_network.node[24].core_layer 	interests[24] 	11938
scalar tree_4_3_u03_r5_network.node[24].core_layer 	data[24] 	8767
scalar tree_4_3_u03_r5_network.node[24].content_store 	p_hit[24] 	0.26553861618362
scalar tree_4_3_u03_r5_network.node[24].content_store 	hits[24] 	3170
scalar tree_4_3_u03_r5_network.node[24].content_store 	misses[24] 	8768
scalar tree_4_3_u03_r5_network.node[24].content_store 	decision_yes[24] 	288
scalar tree_4_3_u03_r5_network.node[24].content_store 	decision_no[24] 	8479
scalar tree_4_3_u03_r5_network.node[24].content_store 	decision_ratio[24] 	0.032850461959621
scalar tree_4_3_u03_r5_network.node[25].core_layer 	interests[25] 	11991
scalar tree_4_3_u03_r5_network.node[25].core_layer 	data[25] 	8809
scalar tree_4_3_u03_r5_network.node[25].content_store 	p_hit[25] 	0.26536569093487
scalar tree_4_3_u03_r5_network.node[25].content_store 	hits[25] 	3182
scalar tree_4_3_u03_r5_network.node[25].content_store 	misses[25] 	8809
scalar tree_4_3_u03_r5_network.node[25].content_store 	decision_yes[25] 	243
scalar tree_4_3_u03_r5_network.node[25].content_store 	decision_no[25] 	8566
scalar tree_4_3_u03_r5_network.node[25].content_store 	decision_ratio[25] 	0.027585423998184
scalar tree_4_3_u03_r5_network.node[26].core_layer 	interests[26] 	11836
scalar tree_4_3_u03_r5_network.node[26].core_layer 	data[26] 	8723
scalar tree_4_3_u03_r5_network.node[26].content_store 	p_hit[26] 	0.26301115241636
scalar tree_4_3_u03_r5_network.node[26].content_store 	hits[26] 	3113
scalar tree_4_3_u03_r5_network.node[26].content_store 	misses[26] 	8723
scalar tree_4_3_u03_r5_network.node[26].content_store 	decision_yes[26] 	257
scalar tree_4_3_u03_r5_network.node[26].content_store 	decision_no[26] 	8466
scalar tree_4_3_u03_r5_network.node[26].content_store 	decision_ratio[26] 	0.029462340937751
scalar tree_4_3_u03_r5_network.node[27].core_layer 	interests[27] 	11885
scalar tree_4_3_u03_r5_network.node[27].core_layer 	data[27] 	8869
scalar tree_4_3_u03_r5_network.node[27].content_store 	p_hit[27] 	0.25384938998738
scalar tree_4_3_u03_r5_network.node[27].content_store 	hits[27] 	3017
scalar tree_4_3_u03_r5_network.node[27].content_store 	misses[27] 	8868
scalar tree_4_3_u03_r5_network.node[27].content_store 	decision_yes[27] 	241
scalar tree_4_3_u03_r5_network.node[27].content_store 	decision_no[27] 	8628
scalar tree_4_3_u03_r5_network.node[27].content_store 	decision_ratio[27] 	0.02717330025933
scalar tree_4_3_u03_r5_network.node[28].core_layer 	interests[28] 	11982
scalar tree_4_3_u03_r5_network.node[28].core_layer 	data[28] 	8760
scalar tree_4_3_u03_r5_network.node[28].content_store 	p_hit[28] 	0.26890335503255
scalar tree_4_3_u03_r5_network.node[28].content_store 	hits[28] 	3222
scalar tree_4_3_u03_r5_network.node[28].content_store 	misses[28] 	8760
scalar tree_4_3_u03_r5_network.node[28].content_store 	decision_yes[28] 	306
scalar tree_4_3_u03_r5_network.node[28].content_store 	decision_no[28] 	8454
scalar tree_4_3_u03_r5_network.node[28].content_store 	decision_ratio[28] 	0.034931506849315
scalar tree_4_3_u03_r5_network.node[29].core_layer 	interests[29] 	12060
scalar tree_4_3_u03_r5_network.node[29].core_layer 	data[29] 	8903
scalar tree_4_3_u03_r5_network.node[29].content_store 	p_hit[29] 	0.26177446102819
scalar tree_4_3_u03_r5_network.node[29].content_store 	hits[29] 	3157
scalar tree_4_3_u03_r5_network.node[29].content_store 	misses[29] 	8903
scalar tree_4_3_u03_r5_network.node[29].content_store 	decision_yes[29] 	233
scalar tree_4_3_u03_r5_network.node[29].content_store 	decision_no[29] 	8670
scalar tree_4_3_u03_r5_network.node[29].content_store 	decision_ratio[29] 	0.026170953611142
scalar tree_4_3_u03_r5_network.node[30].core_layer 	interests[30] 	11869
scalar tree_4_3_u03_r5_network.node[30].core_layer 	data[30] 	8662
scalar tree_4_3_u03_r5_network.node[30].content_store 	p_hit[30] 	0.27011542674193
scalar tree_4_3_u03_r5_network.node[30].content_store 	hits[30] 	3206
scalar tree_4_3_u03_r5_network.node[30].content_store 	misses[30] 	8663
scalar tree_4_3_u03_r5_network.node[30].content_store 	decision_yes[30] 	257
scalar tree_4_3_u03_r5_network.node[30].content_store 	decision_no[30] 	8405
scalar tree_4_3_u03_r5_network.node[30].content_store 	decision_ratio[30] 	0.02966982221196
scalar tree_4_3_u03_r5_network.node[31].core_layer 	interests[31] 	11981
scalar tree_4_3_u03_r5_network.node[31].core_layer 	data[31] 	8827
scalar tree_4_3_u03_r5_network.node[31].content_store 	p_hit[31] 	0.26333361155162
scalar tree_4_3_u03_r5_network.node[31].content_store 	hits[31] 	3155
scalar tree_4_3_u03_r5_network.node[31].content_store 	misses[31] 	8826
scalar tree_4_3_u03_r5_network.node[31].content_store 	decision_yes[31] 	279
scalar tree_4_3_u03_r5_network.node[31].content_store 	decision_no[31] 	8548
scalar tree_4_3_u03_r5_network.node[31].content_store 	decision_ratio[31] 	0.031607567690042
scalar tree_4_3_u03_r5_network.node[32].core_layer 	interests[32] 	12107
scalar tree_4_3_u03_r5_network.node[32].core_layer 	data[32] 	8877
scalar tree_4_3_u03_r5_network.node[32].content_store 	p_hit[32] 	0.26678780870571
scalar tree_4_3_u03_r5_network.node[32].content_store 	hits[32] 	3230
scalar tree_4_3_u03_r5_network.node[32].content_store 	misses[32] 	8877
scalar tree_4_3_u03_r5_network.node[32].content_store 	decision_yes[32] 	279
scalar tree_4_3_u03_r5_network.node[32].content_store 	decision_no[32] 	8598
scalar tree_4_3_u03_r5_network.node[32].content_store 	decision_ratio[32] 	0.031429537005745
scalar tree_4_3_u03_r5_network.node[33].core_layer 	interests[33] 	11923
scalar tree_4_3_u03_r5_network.node[33].core_layer 	data[33] 	8706
scalar tree_4_3_u03_r5_network.node[33].content_store 	p_hit[33] 	0.26981464396544
scalar tree_4_3_u03_r5_network.node[33].content_store 	hits[33] 	3217
scalar tree_4_3_u03_r5_network.node[33].content_store 	misses[33] 	8706
scalar tree_4_3_u03_r5_network.node[33].content_store 	decision_yes[33] 	277
scalar tree_4_3_u03_r5_network.node[33].content_store 	decision_no[33] 	8429
scalar tree_4_3_u03_r5_network.node[33].content_store 	decision_ratio[33] 	0.031817137606249
scalar tree_4_3_u03_r5_network.node[34].core_layer 	interests[34] 	12177
scalar tree_4_3_u03_r5_network.node[34].core_layer 	data[34] 	9012
scalar tree_4_3_u03_r5_network.node[34].content_store 	p_hit[34] 	0.25983411349265
scalar tree_4_3_u03_r5_network.node[34].content_store 	hits[34] 	3164
scalar tree_4_3_u03_r5_network.node[34].content_store 	misses[34] 	9013
scalar tree_4_3_u03_r5_network.node[34].content_store 	decision_yes[34] 	305
scalar tree_4_3_u03_r5_network.node[34].content_store 	decision_no[34] 	8707
scalar tree_4_3_u03_r5_network.node[34].content_store 	decision_ratio[34] 	0.033843763870395
scalar tree_4_3_u03_r5_network.node[35].core_layer 	interests[35] 	11997
scalar tree_4_3_u03_r5_network.node[35].core_layer 	data[35] 	8806
scalar tree_4_3_u03_r5_network.node[35].content_store 	p_hit[35] 	0.26598316245728
scalar tree_4_3_u03_r5_network.node[35].content_store 	hits[35] 	3191
scalar tree_4_3_u03_r5_network.node[35].content_store 	misses[35] 	8806
scalar tree_4_3_u03_r5_network.node[35].content_store 	decision_yes[35] 	269
scalar tree_4_3_u03_r5_network.node[35].content_store 	decision_no[35] 	8537
scalar tree_4_3_u03_r5_network.node[35].content_store 	decision_ratio[35] 	0.030547354076766
scalar tree_4_3_u03_r5_network.node[36].core_layer 	interests[36] 	12017
scalar tree_4_3_u03_r5_network.node[36].core_layer 	data[36] 	8899
scalar tree_4_3_u03_r5_network.node[36].content_store 	p_hit[36] 	0.25946575684447
scalar tree_4_3_u03_r5_network.node[36].content_store 	hits[36] 	3118
scalar tree_4_3_u03_r5_network.node[36].content_store 	misses[36] 	8899
scalar tree_4_3_u03_r5_network.node[36].content_store 	decision_yes[36] 	291
scalar tree_4_3_u03_r5_network.node[36].content_store 	decision_no[36] 	8608
scalar tree_4_3_u03_r5_network.node[36].content_store 	decision_ratio[36] 	0.032700303404877
scalar tree_4_3_u03_r5_network.node[37].core_layer 	interests[37] 	12075
scalar tree_4_3_u03_r5_network.node[37].core_layer 	data[37] 	8898
scalar tree_4_3_u03_r5_network.node[37].content_store 	p_hit[37] 	0.26310559006211
scalar tree_4_3_u03_r5_network.node[37].content_store 	hits[37] 	3177
scalar tree_4_3_u03_r5_network.node[37].content_store 	misses[37] 	8898
scalar tree_4_3_u03_r5_network.node[37].content_store 	decision_yes[37] 	271
scalar tree_4_3_u03_r5_network.node[37].content_store 	decision_no[37] 	8627
scalar tree_4_3_u03_r5_network.node[37].content_store 	decision_ratio[37] 	0.030456282310632
scalar tree_4_3_u03_r5_network.node[38].core_layer 	interests[38] 	11944
scalar tree_4_3_u03_r5_network.node[38].core_layer 	data[38] 	8768
scalar tree_4_3_u03_r5_network.node[38].content_store 	p_hit[38] 	0.26582384460817
scalar tree_4_3_u03_r5_network.node[38].content_store 	hits[38] 	3175
scalar tree_4_3_u03_r5_network.node[38].content_store 	misses[38] 	8769
scalar tree_4_3_u03_r5_network.node[38].content_store 	decision_yes[38] 	249
scalar tree_4_3_u03_r5_network.node[38].content_store 	decision_no[38] 	8519
scalar tree_4_3_u03_r5_network.node[38].content_store 	decision_ratio[38] 	0.028398722627737
scalar tree_4_3_u03_r5_network.node[39].core_layer 	interests[39] 	12127
scalar tree_4_3_u03_r5_network.node[39].core_layer 	data[39] 	8856
scalar tree_4_3_u03_r5_network.node[39].content_store 	p_hit[39] 	0.26972870454358
scalar tree_4_3_u03_r5_network.node[39].content_store 	hits[39] 	3271
scalar tree_4_3_u03_r5_network.node[39].content_store 	misses[39] 	8856
scalar tree_4_3_u03_r5_network.node[39].content_store 	decision_yes[39] 	263
scalar tree_4_3_u03_r5_network.node[39].content_store 	decision_no[39] 	8593
scalar tree_4_3_u03_r5_network.node[39].content_store 	decision_ratio[39] 	0.029697380307136
scalar tree_4_3_u03_r5_network.client[13] 	hdistance[13] 	2.8612307942444
scalar tree_4_3_u03_r5_network.client[13] 	downloads[13] 	12301
scalar tree_4_3_u03_r5_network.client[13] 	avg_time[13] 	0.004327189984
scalar tree_4_3_u03_r5_network.client[14] 	hdistance[14] 	2.8204044422344
scalar tree_4_3_u03_r5_network.client[14] 	downloads[14] 	12066
scalar tree_4_3_u03_r5_network.client[14] 	avg_time[14] 	0.004265868023
scalar tree_4_3_u03_r5_network.client[15] 	hdistance[15] 	2.8263201320132
scalar tree_4_3_u03_r5_network.client[15] 	downloads[15] 	12120
scalar tree_4_3_u03_r5_network.client[15] 	avg_time[15] 	0.004275173541
scalar tree_4_3_u03_r5_network.client[16] 	hdistance[16] 	2.8376678565358
scalar tree_4_3_u03_r5_network.client[16] 	downloads[16] 	11766
scalar tree_4_3_u03_r5_network.client[16] 	avg_time[16] 	0.004290034064
scalar tree_4_3_u03_r5_network.client[17] 	hdistance[17] 	2.8102770037699
scalar tree_4_3_u03_r5_network.client[17] 	downloads[17] 	12202
scalar tree_4_3_u03_r5_network.client[17] 	avg_time[17] 	0.004251267238
scalar tree_4_3_u03_r5_network.client[18] 	hdistance[18] 	2.8460635532825
scalar tree_4_3_u03_r5_network.client[18] 	downloads[18] 	11927
scalar tree_4_3_u03_r5_network.client[18] 	avg_time[18] 	0.004303845433
scalar tree_4_3_u03_r5_network.client[19] 	hdistance[19] 	2.8458580623589
scalar tree_4_3_u03_r5_network.client[19] 	downloads[19] 	11963
scalar tree_4_3_u03_r5_network.client[19] 	avg_time[19] 	0.004308676121
scalar tree_4_3_u03_r5_network.client[20] 	hdistance[20] 	2.7885886388354
scalar tree_4_3_u03_r5_network.client[20] 	downloads[20] 	11953
scalar tree_4_3_u03_r5_network.client[20] 	avg_time[20] 	0.004217682923
scalar tree_4_3_u03_r5_network.client[21] 	hdistance[21] 	2.8009652188384
scalar tree_4_3_u03_r5_network.client[21] 	downloads[21] 	12018
scalar tree_4_3_u03_r5_network.client[21] 	avg_time[21] 	0.00423697488
scalar tree_4_3_u03_r5_network.client[22] 	hdistance[22] 	2.8257348029392
scalar tree_4_3_u03_r5_network.client[22] 	downloads[22] 	11976
scalar tree_4_3_u03_r5_network.client[22] 	avg_time[22] 	0.004272701556
scalar tree_4_3_u03_r5_network.client[23] 	hdistance[23] 	2.826341383005
scalar tree_4_3_u03_r5_network.client[23] 	downloads[23] 	12133
scalar tree_4_3_u03_r5_network.client[23] 	avg_time[23] 	0.004274784692
scalar tree_4_3_u03_r5_network.client[24] 	hdistance[24] 	2.8358046410321
scalar tree_4_3_u03_r5_network.client[24] 	downloads[24] 	11937
scalar tree_4_3_u03_r5_network.client[24] 	avg_time[24] 	0.00428683445
scalar tree_4_3_u03_r5_network.client[25] 	hdistance[25] 	2.8552247518973
scalar tree_4_3_u03_r5_network.client[25] 	downloads[25] 	11991
scalar tree_4_3_u03_r5_network.client[25] 	avg_time[25] 	0.004309896103
scalar tree_4_3_u03_r5_network.client[26] 	hdistance[26] 	2.8559479553903
scalar tree_4_3_u03_r5_network.client[26] 	downloads[26] 	11836
scalar tree_4_3_u03_r5_network.client[26] 	avg_time[26] 	0.004316658058
scalar tree_4_3_u03_r5_network.client[27] 	hdistance[27] 	2.8966851758371
scalar tree_4_3_u03_r5_network.client[27] 	downloads[27] 	11886
scalar tree_4_3_u03_r5_network.client[27] 	avg_time[27] 	0.00437590145
scalar tree_4_3_u03_r5_network.client[28] 	hdistance[28] 	2.8165581705892
scalar tree_4_3_u03_r5_network.client[28] 	downloads[28] 	11982
scalar tree_4_3_u03_r5_network.client[28] 	avg_time[28] 	0.004259927588
scalar tree_4_3_u03_r5_network.client[29] 	hdistance[29] 	2.8602819237148
scalar tree_4_3_u03_r5_network.client[29] 	downloads[29] 	12060
scalar tree_4_3_u03_r5_network.client[29] 	avg_time[29] 	0.004326199303
scalar tree_4_3_u03_r5_network.client[30] 	hdistance[30] 	2.822295247725
scalar tree_4_3_u03_r5_network.client[30] 	downloads[30] 	11868
scalar tree_4_3_u03_r5_network.client[30] 	avg_time[30] 	0.004267607436
scalar tree_4_3_u03_r5_network.client[31] 	hdistance[31] 	2.8470205307962
scalar tree_4_3_u03_r5_network.client[31] 	downloads[31] 	11982
scalar tree_4_3_u03_r5_network.client[31] 	avg_time[31] 	0.004305121347
scalar tree_4_3_u03_r5_network.client[32] 	hdistance[32] 	2.836871231519
scalar tree_4_3_u03_r5_network.client[32] 	downloads[32] 	12107
scalar tree_4_3_u03_r5_network.client[32] 	avg_time[32] 	0.004286773257
scalar tree_4_3_u03_r5_network.client[33] 	hdistance[33] 	2.8218569152059
scalar tree_4_3_u03_r5_network.client[33] 	downloads[33] 	11923
scalar tree_4_3_u03_r5_network.client[33] 	avg_time[33] 	0.004265534204
scalar tree_4_3_u03_r5_network.client[34] 	hdistance[34] 	2.8554533508541
scalar tree_4_3_u03_r5_network.client[34] 	downloads[34] 	12176
scalar tree_4_3_u03_r5_network.client[34] 	avg_time[34] 	0.004318649756
scalar tree_4_3_u03_r5_network.client[35] 	hdistance[35] 	2.8446278236226
scalar tree_4_3_u03_r5_network.client[35] 	downloads[35] 	11997
scalar tree_4_3_u03_r5_network.client[35] 	avg_time[35] 	0.004296468398
scalar tree_4_3_u03_r5_network.client[36] 	hdistance[36] 	2.8622784388783
scalar tree_4_3_u03_r5_network.client[36] 	downloads[36] 	12017
scalar tree_4_3_u03_r5_network.client[36] 	avg_time[36] 	0.004325185076
scalar tree_4_3_u03_r5_network.client[37] 	hdistance[37] 	2.8553209109731
scalar tree_4_3_u03_r5_network.client[37] 	downloads[37] 	12075
scalar tree_4_3_u03_r5_network.client[37] 	avg_time[37] 	0.00431368259
scalar tree_4_3_u03_r5_network.client[38] 	hdistance[38] 	2.8476932094114
scalar tree_4_3_u03_r5_network.client[38] 	downloads[38] 	11943
scalar tree_4_3_u03_r5_network.client[38] 	avg_time[38] 	0.004300124163
scalar tree_4_3_u03_r5_network.client[39] 	hdistance[39] 	2.8139688298837
scalar tree_4_3_u03_r5_network.client[39] 	downloads[39] 	12127
scalar tree_4_3_u03_r5_network.client[39] 	avg_time[39] 	0.004257902487
