version 2
run General-61-20160820-07:41:30-856
attr a 0.9
attr cd lcd
attr configname General
attr cr lru
attr datetime 20160820-07:41:30
attr experiment General
attr fsize 1
attr inifile hw5115/scenario_A/SPR-LCD.ini
attr iterationvars "$name=tree_4_3, $un=03, $rep=2, $cd=lcd, $cr=lru, $fsize=1, $a=0.9, $sl=spr, $ttl=1000, $variance=0.05"
attr iterationvars2 "$name=tree_4_3, $un=03, $rep=2, $cd=lcd, $cr=lru, $fsize=1, $a=0.9, $sl=spr, $ttl=1000, $variance=0.05, $repetition=0"
attr measurement "$name=tree_4_3, $un=03, $rep=2, $cd=lcd, $cr=lru, $fsize=1, $a=0.9, $sl=spr, $ttl=1000, $variance=0.05"
attr name tree_4_3
attr network networks.${name}_u${un}_r${rep}_network
attr processid 856
attr rep 2
attr repetition 0
attr replication #0
attr resultdir results
attr runnumber 61
attr seedset 2
attr sl spr
attr ttl 1000
attr un 03
attr variance 0.05

scalar . 	a 	0.9
scalar . 	fsize 	1
scalar . 	rep 	2
scalar . 	ttl 	1000
scalar . 	un 	03
scalar . 	variance 	0.05
scalar tree_4_3_u03_r2_network.content_distribution 	repo-0 	0
scalar tree_4_3_u03_r2_network.content_distribution 	client-0 	13
scalar tree_4_3_u03_r2_network.content_distribution 	client-1 	14
scalar tree_4_3_u03_r2_network.content_distribution 	client-2 	15
scalar tree_4_3_u03_r2_network.content_distribution 	client-3 	16
scalar tree_4_3_u03_r2_network.content_distribution 	client-4 	17
scalar tree_4_3_u03_r2_network.content_distribution 	client-5 	18
scalar tree_4_3_u03_r2_network.content_distribution 	client-6 	19
scalar tree_4_3_u03_r2_network.content_distribution 	client-7 	20
scalar tree_4_3_u03_r2_network.content_distribution 	client-8 	21
scalar tree_4_3_u03_r2_network.content_distribution 	client-9 	22
scalar tree_4_3_u03_r2_network.content_distribution 	client-10 	23
scalar tree_4_3_u03_r2_network.content_distribution 	client-11 	24
scalar tree_4_3_u03_r2_network.content_distribution 	client-12 	25
scalar tree_4_3_u03_r2_network.content_distribution 	client-13 	26
scalar tree_4_3_u03_r2_network.content_distribution 	client-14 	27
scalar tree_4_3_u03_r2_network.content_distribution 	client-15 	28
scalar tree_4_3_u03_r2_network.content_distribution 	client-16 	29
scalar tree_4_3_u03_r2_network.content_distribution 	client-17 	30
scalar tree_4_3_u03_r2_network.content_distribution 	client-18 	31
scalar tree_4_3_u03_r2_network.content_distribution 	client-19 	32
scalar tree_4_3_u03_r2_network.content_distribution 	client-20 	33
scalar tree_4_3_u03_r2_network.content_distribution 	client-21 	34
scalar tree_4_3_u03_r2_network.content_distribution 	client-22 	35
scalar tree_4_3_u03_r2_network.content_distribution 	client-23 	36
scalar tree_4_3_u03_r2_network.content_distribution 	client-24 	37
scalar tree_4_3_u03_r2_network.content_distribution 	client-25 	38
scalar tree_4_3_u03_r2_network.content_distribution 	client-26 	39
scalar tree_4_3_u03_r2_network.content_distribution 	repo-0_card 	100000
scalar tree_4_3_u03_r2_network.content_distribution 	repo-0_price 	0
scalar tree_4_3_u03_r2_network.statistics 	stabilization_time 	1849.2
scalar tree_4_3_u03_r2_network.statistics 	p_hit 	0.18854808159966
scalar tree_4_3_u03_r2_network.statistics 	interests 	25437.625
scalar tree_4_3_u03_r2_network.statistics 	data 	17341.175
scalar tree_4_3_u03_r2_network.statistics 	hdistance 	2.8330045678431
scalar tree_4_3_u03_r2_network.statistics 	avg_time 	0.004283689622
scalar tree_4_3_u03_r2_network.statistics 	downloads 	323856
scalar tree_4_3_u03_r2_network.statistics 	total_cost 	0
scalar tree_4_3_u03_r2_network.statistics 	total_replicas 	100000
scalar tree_4_3_u03_r2_network.statistics 	inner_hit 	0.30888419544489
scalar tree_4_3_u03_r2_network.node[0].core_layer 	interests[0] 	226136
scalar tree_4_3_u03_r2_network.node[0].core_layer 	repo_load[0] 	223822
scalar tree_4_3_u03_r2_network.node[0].core_layer 	data[0] 	0
scalar tree_4_3_u03_r2_network.node[0].core_layer 	repo_int[0] 	223822
scalar tree_4_3_u03_r2_network.node[0].content_store 	p_hit[0] 	0.010232780273818
scalar tree_4_3_u03_r2_network.node[0].content_store 	hits[0] 	2314
scalar tree_4_3_u03_r2_network.node[0].content_store 	misses[0] 	223822
scalar tree_4_3_u03_r2_network.node[0].content_store 	decision_yes[0] 	223822
scalar tree_4_3_u03_r2_network.node[0].content_store 	decision_no[0] 	0
scalar tree_4_3_u03_r2_network.node[0].content_store 	decision_ratio[0] 	1
scalar tree_4_3_u03_r2_network.node[1].core_layer 	interests[1] 	76657
scalar tree_4_3_u03_r2_network.node[1].core_layer 	data[1] 	75413
scalar tree_4_3_u03_r2_network.node[1].content_store 	p_hit[1] 	0.016215087989355
scalar tree_4_3_u03_r2_network.node[1].content_store 	hits[1] 	1243
scalar tree_4_3_u03_r2_network.node[1].content_store 	misses[1] 	75414
scalar tree_4_3_u03_r2_network.node[1].content_store 	decision_yes[1] 	770
scalar tree_4_3_u03_r2_network.node[1].content_store 	decision_no[1] 	74643
scalar tree_4_3_u03_r2_network.node[1].content_store 	decision_ratio[1] 	0.01021044117062
scalar tree_4_3_u03_r2_network.node[2].core_layer 	interests[2] 	102405
scalar tree_4_3_u03_r2_network.node[2].core_layer 	data[2] 	100449
scalar tree_4_3_u03_r2_network.node[2].content_store 	p_hit[2] 	0.019100629852058
scalar tree_4_3_u03_r2_network.node[2].content_store 	hits[2] 	1956
scalar tree_4_3_u03_r2_network.node[2].content_store 	misses[2] 	100449
scalar tree_4_3_u03_r2_network.node[2].content_store 	decision_yes[2] 	1017
scalar tree_4_3_u03_r2_network.node[2].content_store 	decision_no[2] 	99432
scalar tree_4_3_u03_r2_network.node[2].content_store 	decision_ratio[2] 	0.010124540811755
scalar tree_4_3_u03_r2_network.node[3].core_layer 	interests[3] 	51002
scalar tree_4_3_u03_r2_network.node[3].core_layer 	data[3] 	50275
scalar tree_4_3_u03_r2_network.node[3].content_store 	p_hit[3] 	0.01423473589271
scalar tree_4_3_u03_r2_network.node[3].content_store 	hits[3] 	726
scalar tree_4_3_u03_r2_network.node[3].content_store 	misses[3] 	50276
scalar tree_4_3_u03_r2_network.node[3].content_store 	decision_yes[3] 	527
scalar tree_4_3_u03_r2_network.node[3].content_store 	decision_no[3] 	49748
scalar tree_4_3_u03_r2_network.node[3].content_store 	decision_ratio[3] 	0.010482347091
scalar tree_4_3_u03_r2_network.node[4].core_layer 	interests[4] 	44084
scalar tree_4_3_u03_r2_network.node[4].core_layer 	data[4] 	42652
scalar tree_4_3_u03_r2_network.node[4].content_store 	p_hit[4] 	0.032438072770166
scalar tree_4_3_u03_r2_network.node[4].content_store 	hits[4] 	1430
scalar tree_4_3_u03_r2_network.node[4].content_store 	misses[4] 	42654
scalar tree_4_3_u03_r2_network.node[4].content_store 	decision_yes[4] 	574
scalar tree_4_3_u03_r2_network.node[4].content_store 	decision_no[4] 	42078
scalar tree_4_3_u03_r2_network.node[4].content_store 	decision_ratio[4] 	0.013457751101941
scalar tree_4_3_u03_r2_network.node[5].core_layer 	interests[5] 	26337
scalar tree_4_3_u03_r2_network.node[5].core_layer 	data[5] 	25507
scalar tree_4_3_u03_r2_network.node[5].content_store 	p_hit[5] 	0.031514599233018
scalar tree_4_3_u03_r2_network.node[5].content_store 	hits[5] 	830
scalar tree_4_3_u03_r2_network.node[5].content_store 	misses[5] 	25507
scalar tree_4_3_u03_r2_network.node[5].content_store 	decision_yes[5] 	443
scalar tree_4_3_u03_r2_network.node[5].content_store 	decision_no[5] 	25064
scalar tree_4_3_u03_r2_network.node[5].content_store 	decision_ratio[5] 	0.017367781393343
scalar tree_4_3_u03_r2_network.node[6].core_layer 	interests[6] 	8765
scalar tree_4_3_u03_r2_network.node[6].core_layer 	data[6] 	8499
scalar tree_4_3_u03_r2_network.node[6].content_store 	p_hit[6] 	0.030347974900171
scalar tree_4_3_u03_r2_network.node[6].content_store 	hits[6] 	266
scalar tree_4_3_u03_r2_network.node[6].content_store 	misses[6] 	8499
scalar tree_4_3_u03_r2_network.node[6].content_store 	decision_yes[6] 	226
scalar tree_4_3_u03_r2_network.node[6].content_store 	decision_no[6] 	8273
scalar tree_4_3_u03_r2_network.node[6].content_store 	decision_ratio[6] 	0.026591363689846
scalar tree_4_3_u03_r2_network.node[7].core_layer 	interests[7] 	44028
scalar tree_4_3_u03_r2_network.node[7].core_layer 	data[7] 	42613
scalar tree_4_3_u03_r2_network.node[7].content_store 	p_hit[7] 	0.032093213409648
scalar tree_4_3_u03_r2_network.node[7].content_store 	hits[7] 	1413
scalar tree_4_3_u03_r2_network.node[7].content_store 	misses[7] 	42615
scalar tree_4_3_u03_r2_network.node[7].content_store 	decision_yes[7] 	682
scalar tree_4_3_u03_r2_network.node[7].content_store 	decision_no[7] 	41931
scalar tree_4_3_u03_r2_network.node[7].content_store 	decision_ratio[7] 	0.016004505667285
scalar tree_4_3_u03_r2_network.node[8].core_layer 	interests[8] 	17828
scalar tree_4_3_u03_r2_network.node[8].core_layer 	data[8] 	17253
scalar tree_4_3_u03_r2_network.node[8].content_store 	p_hit[8] 	0.032252636302446
scalar tree_4_3_u03_r2_network.node[8].content_store 	hits[8] 	575
scalar tree_4_3_u03_r2_network.node[8].content_store 	misses[8] 	17253
scalar tree_4_3_u03_r2_network.node[8].content_store 	decision_yes[8] 	394
scalar tree_4_3_u03_r2_network.node[8].content_store 	decision_no[8] 	16859
scalar tree_4_3_u03_r2_network.node[8].content_store 	decision_ratio[8] 	0.022836608126123
scalar tree_4_3_u03_r2_network.node[9].core_layer 	interests[9] 	17590
scalar tree_4_3_u03_r2_network.node[9].core_layer 	data[9] 	17038
scalar tree_4_3_u03_r2_network.node[9].content_store 	p_hit[9] 	0.031381466742467
scalar tree_4_3_u03_r2_network.node[9].content_store 	hits[9] 	552
scalar tree_4_3_u03_r2_network.node[9].content_store 	misses[9] 	17038
scalar tree_4_3_u03_r2_network.node[9].content_store 	decision_yes[9] 	383
scalar tree_4_3_u03_r2_network.node[9].content_store 	decision_no[9] 	16655
scalar tree_4_3_u03_r2_network.node[9].content_store 	decision_ratio[9] 	0.022479164221153
scalar tree_4_3_u03_r2_network.node[10].core_layer 	interests[10] 	26328
scalar tree_4_3_u03_r2_network.node[10].core_layer 	data[10] 	25617
scalar tree_4_3_u03_r2_network.node[10].content_store 	p_hit[10] 	0.026967487085992
scalar tree_4_3_u03_r2_network.node[10].content_store 	hits[10] 	710
scalar tree_4_3_u03_r2_network.node[10].content_store 	misses[10] 	25618
scalar tree_4_3_u03_r2_network.node[10].content_store 	decision_yes[10] 	354
scalar tree_4_3_u03_r2_network.node[10].content_store 	decision_no[10] 	25263
scalar tree_4_3_u03_r2_network.node[10].content_store 	decision_ratio[10] 	0.013818948354608
scalar tree_4_3_u03_r2_network.node[11].core_layer 	interests[11] 	26353
scalar tree_4_3_u03_r2_network.node[11].core_layer 	data[11] 	25500
scalar tree_4_3_u03_r2_network.node[11].content_store 	p_hit[11] 	0.032368231320912
scalar tree_4_3_u03_r2_network.node[11].content_store 	hits[11] 	853
scalar tree_4_3_u03_r2_network.node[11].content_store 	misses[11] 	25500
scalar tree_4_3_u03_r2_network.node[11].content_store 	decision_yes[11] 	497
scalar tree_4_3_u03_r2_network.node[11].content_store 	decision_no[11] 	25003
scalar tree_4_3_u03_r2_network.node[11].content_store 	decision_ratio[11] 	0.019490196078431
scalar tree_4_3_u03_r2_network.node[12].core_layer 	interests[12] 	26135
scalar tree_4_3_u03_r2_network.node[12].core_layer 	data[12] 	25384
scalar tree_4_3_u03_r2_network.node[12].content_store 	p_hit[12] 	0.02873541228238
scalar tree_4_3_u03_r2_network.node[12].content_store 	hits[12] 	751
scalar tree_4_3_u03_r2_network.node[12].content_store 	misses[12] 	25384
scalar tree_4_3_u03_r2_network.node[12].content_store 	decision_yes[12] 	372
scalar tree_4_3_u03_r2_network.node[12].content_store 	decision_no[12] 	25012
scalar tree_4_3_u03_r2_network.node[12].content_store 	decision_ratio[12] 	0.014654900724866
scalar tree_4_3_u03_r2_network.node[13].core_layer 	interests[13] 	12061
scalar tree_4_3_u03_r2_network.node[13].core_layer 	data[13] 	8829
scalar tree_4_3_u03_r2_network.node[13].content_store 	p_hit[13] 	0.26797114667109
scalar tree_4_3_u03_r2_network.node[13].content_store 	hits[13] 	3232
scalar tree_4_3_u03_r2_network.node[13].content_store 	misses[13] 	8829
scalar tree_4_3_u03_r2_network.node[13].content_store 	decision_yes[13] 	287
scalar tree_4_3_u03_r2_network.node[13].content_store 	decision_no[13] 	8542
scalar tree_4_3_u03_r2_network.node[13].content_store 	decision_ratio[13] 	0.032506512628837
scalar tree_4_3_u03_r2_network.node[14].core_layer 	interests[14] 	12034
scalar tree_4_3_u03_r2_network.node[14].core_layer 	data[14] 	8888
scalar tree_4_3_u03_r2_network.node[14].content_store 	p_hit[14] 	0.26150905766994
scalar tree_4_3_u03_r2_network.node[14].content_store 	hits[14] 	3147
scalar tree_4_3_u03_r2_network.node[14].content_store 	misses[14] 	8887
scalar tree_4_3_u03_r2_network.node[14].content_store 	decision_yes[14] 	290
scalar tree_4_3_u03_r2_network.node[14].content_store 	decision_no[14] 	8598
scalar tree_4_3_u03_r2_network.node[14].content_store 	decision_ratio[14] 	0.032628262826283
scalar tree_4_3_u03_r2_network.node[15].core_layer 	interests[15] 	11901
scalar tree_4_3_u03_r2_network.node[15].core_layer 	data[15] 	8734
scalar tree_4_3_u03_r2_network.node[15].content_store 	p_hit[15] 	0.26611209142089
scalar tree_4_3_u03_r2_network.node[15].content_store 	hits[15] 	3167
scalar tree_4_3_u03_r2_network.node[15].content_store 	misses[15] 	8734
scalar tree_4_3_u03_r2_network.node[15].content_store 	decision_yes[15] 	264
scalar tree_4_3_u03_r2_network.node[15].content_store 	decision_no[15] 	8470
scalar tree_4_3_u03_r2_network.node[15].content_store 	decision_ratio[15] 	0.030226700251889
scalar tree_4_3_u03_r2_network.node[16].core_layer 	interests[16] 	12157
scalar tree_4_3_u03_r2_network.node[16].core_layer 	data[16] 	8946
scalar tree_4_3_u03_r2_network.node[16].content_store 	p_hit[16] 	0.26412766307477
scalar tree_4_3_u03_r2_network.node[16].content_store 	hits[16] 	3211
scalar tree_4_3_u03_r2_network.node[16].content_store 	misses[16] 	8946
scalar tree_4_3_u03_r2_network.node[16].content_store 	decision_yes[16] 	297
scalar tree_4_3_u03_r2_network.node[16].content_store 	decision_no[16] 	8649
scalar tree_4_3_u03_r2_network.node[16].content_store 	decision_ratio[16] 	0.033199195171026
scalar tree_4_3_u03_r2_network.node[17].core_layer 	interests[17] 	11966
scalar tree_4_3_u03_r2_network.node[17].core_layer 	data[17] 	8695
scalar tree_4_3_u03_r2_network.node[17].content_store 	p_hit[17] 	0.27335784723383
scalar tree_4_3_u03_r2_network.node[17].content_store 	hits[17] 	3271
scalar tree_4_3_u03_r2_network.node[17].content_store 	misses[17] 	8695
scalar tree_4_3_u03_r2_network.node[17].content_store 	decision_yes[17] 	274
scalar tree_4_3_u03_r2_network.node[17].content_store 	decision_no[17] 	8421
scalar tree_4_3_u03_r2_network.node[17].content_store 	decision_ratio[17] 	0.031512363427257
scalar tree_4_3_u03_r2_network.node[18].core_layer 	interests[18] 	12158
scalar tree_4_3_u03_r2_network.node[18].core_layer 	data[18] 	8830
scalar tree_4_3_u03_r2_network.node[18].content_store 	p_hit[18] 	0.27372923178154
scalar tree_4_3_u03_r2_network.node[18].content_store 	hits[18] 	3328
scalar tree_4_3_u03_r2_network.node[18].content_store 	misses[18] 	8830
scalar tree_4_3_u03_r2_network.node[18].content_store 	decision_yes[18] 	263
scalar tree_4_3_u03_r2_network.node[18].content_store 	decision_no[18] 	8567
scalar tree_4_3_u03_r2_network.node[18].content_store 	decision_ratio[18] 	0.029784824462061
scalar tree_4_3_u03_r2_network.node[19].core_layer 	interests[19] 	11884
scalar tree_4_3_u03_r2_network.node[19].core_layer 	data[19] 	8688
scalar tree_4_3_u03_r2_network.node[19].content_store 	p_hit[19] 	0.26893301918546
scalar tree_4_3_u03_r2_network.node[19].content_store 	hits[19] 	3196
scalar tree_4_3_u03_r2_network.node[19].content_store 	misses[19] 	8688
scalar tree_4_3_u03_r2_network.node[19].content_store 	decision_yes[19] 	292
scalar tree_4_3_u03_r2_network.node[19].content_store 	decision_no[19] 	8396
scalar tree_4_3_u03_r2_network.node[19].content_store 	decision_ratio[19] 	0.033609576427256
scalar tree_4_3_u03_r2_network.node[20].core_layer 	interests[20] 	11931
scalar tree_4_3_u03_r2_network.node[20].core_layer 	data[20] 	8812
scalar tree_4_3_u03_r2_network.node[20].content_store 	p_hit[20] 	0.26141983069315
scalar tree_4_3_u03_r2_network.node[20].content_store 	hits[20] 	3119
scalar tree_4_3_u03_r2_network.node[20].content_store 	misses[20] 	8812
scalar tree_4_3_u03_r2_network.node[20].content_store 	decision_yes[20] 	293
scalar tree_4_3_u03_r2_network.node[20].content_store 	decision_no[20] 	8519
scalar tree_4_3_u03_r2_network.node[20].content_store 	decision_ratio[20] 	0.033250113481616
scalar tree_4_3_u03_r2_network.node[21].core_layer 	interests[21] 	11942
scalar tree_4_3_u03_r2_network.node[21].core_layer 	data[21] 	8765
scalar tree_4_3_u03_r2_network.node[21].content_store 	p_hit[21] 	0.26603583989282
scalar tree_4_3_u03_r2_network.node[21].content_store 	hits[21] 	3177
scalar tree_4_3_u03_r2_network.node[21].content_store 	misses[21] 	8765
scalar tree_4_3_u03_r2_network.node[21].content_store 	decision_yes[21] 	266
scalar tree_4_3_u03_r2_network.node[21].content_store 	decision_no[21] 	8499
scalar tree_4_3_u03_r2_network.node[21].content_store 	decision_ratio[21] 	0.030347974900171
scalar tree_4_3_u03_r2_network.node[22].core_layer 	interests[22] 	11935
scalar tree_4_3_u03_r2_network.node[22].core_layer 	data[22] 	8656
scalar tree_4_3_u03_r2_network.node[22].content_store 	p_hit[22] 	0.27473816506075
scalar tree_4_3_u03_r2_network.node[22].content_store 	hits[22] 	3279
scalar tree_4_3_u03_r2_network.node[22].content_store 	misses[22] 	8656
scalar tree_4_3_u03_r2_network.node[22].content_store 	decision_yes[22] 	268
scalar tree_4_3_u03_r2_network.node[22].content_store 	decision_no[22] 	8388
scalar tree_4_3_u03_r2_network.node[22].content_store 	decision_ratio[22] 	0.030961182994455
scalar tree_4_3_u03_r2_network.node[23].core_layer 	interests[23] 	11852
scalar tree_4_3_u03_r2_network.node[23].core_layer 	data[23] 	8709
scalar tree_4_3_u03_r2_network.node[23].content_store 	p_hit[23] 	0.26518731015862
scalar tree_4_3_u03_r2_network.node[23].content_store 	hits[23] 	3143
scalar tree_4_3_u03_r2_network.node[23].content_store 	misses[23] 	8709
scalar tree_4_3_u03_r2_network.node[23].content_store 	decision_yes[23] 	294
scalar tree_4_3_u03_r2_network.node[23].content_store 	decision_no[23] 	8415
scalar tree_4_3_u03_r2_network.node[23].content_store 	decision_ratio[23] 	0.03375818119187
scalar tree_4_3_u03_r2_network.node[24].core_layer 	interests[24] 	12072
scalar tree_4_3_u03_r2_network.node[24].core_layer 	data[24] 	8906
scalar tree_4_3_u03_r2_network.node[24].content_store 	p_hit[24] 	0.26217693836978
scalar tree_4_3_u03_r2_network.node[24].content_store 	hits[24] 	3165
scalar tree_4_3_u03_r2_network.node[24].content_store 	misses[24] 	8907
scalar tree_4_3_u03_r2_network.node[24].content_store 	decision_yes[24] 	273
scalar tree_4_3_u03_r2_network.node[24].content_store 	decision_no[24] 	8633
scalar tree_4_3_u03_r2_network.node[24].content_store 	decision_ratio[24] 	0.030653492027846
scalar tree_4_3_u03_r2_network.node[25].core_layer 	interests[25] 	12033
scalar tree_4_3_u03_r2_network.node[25].core_layer 	data[25] 	8957
scalar tree_4_3_u03_r2_network.node[25].content_store 	p_hit[25] 	0.25563034987119
scalar tree_4_3_u03_r2_network.node[25].content_store 	hits[25] 	3076
scalar tree_4_3_u03_r2_network.node[25].content_store 	misses[25] 	8957
scalar tree_4_3_u03_r2_network.node[25].content_store 	decision_yes[25] 	284
scalar tree_4_3_u03_r2_network.node[25].content_store 	decision_no[25] 	8673
scalar tree_4_3_u03_r2_network.node[25].content_store 	decision_ratio[25] 	0.031707044769454
scalar tree_4_3_u03_r2_network.node[26].core_layer 	interests[26] 	12217
scalar tree_4_3_u03_r2_network.node[26].core_layer 	data[26] 	9043
scalar tree_4_3_u03_r2_network.node[26].content_store 	p_hit[26] 	0.25980191536384
scalar tree_4_3_u03_r2_network.node[26].content_store 	hits[26] 	3174
scalar tree_4_3_u03_r2_network.node[26].content_store 	misses[26] 	9043
scalar tree_4_3_u03_r2_network.node[26].content_store 	decision_yes[26] 	283
scalar tree_4_3_u03_r2_network.node[26].content_store 	decision_no[26] 	8760
scalar tree_4_3_u03_r2_network.node[26].content_store 	decision_ratio[26] 	0.031294924250802
scalar tree_4_3_u03_r2_network.node[27].core_layer 	interests[27] 	12102
scalar tree_4_3_u03_r2_network.node[27].core_layer 	data[27] 	8785
scalar tree_4_3_u03_r2_network.node[27].content_store 	p_hit[27] 	0.27408692778053
scalar tree_4_3_u03_r2_network.node[27].content_store 	hits[27] 	3317
scalar tree_4_3_u03_r2_network.node[27].content_store 	misses[27] 	8785
scalar tree_4_3_u03_r2_network.node[27].content_store 	decision_yes[27] 	292
scalar tree_4_3_u03_r2_network.node[27].content_store 	decision_no[27] 	8493
scalar tree_4_3_u03_r2_network.node[27].content_store 	decision_ratio[27] 	0.033238474672738
scalar tree_4_3_u03_r2_network.node[28].core_layer 	interests[28] 	12011
scalar tree_4_3_u03_r2_network.node[28].core_layer 	data[28] 	8799
scalar tree_4_3_u03_r2_network.node[28].content_store 	p_hit[28] 	0.26742153026392
scalar tree_4_3_u03_r2_network.node[28].content_store 	hits[28] 	3212
scalar tree_4_3_u03_r2_network.node[28].content_store 	misses[28] 	8799
scalar tree_4_3_u03_r2_network.node[28].content_store 	decision_yes[28] 	294
scalar tree_4_3_u03_r2_network.node[28].content_store 	decision_no[28] 	8505
scalar tree_4_3_u03_r2_network.node[28].content_store 	decision_ratio[28] 	0.033412887828162
scalar tree_4_3_u03_r2_network.node[29].core_layer 	interests[29] 	12097
scalar tree_4_3_u03_r2_network.node[29].core_layer 	data[29] 	8853
scalar tree_4_3_u03_r2_network.node[29].content_store 	p_hit[29] 	0.26816566090766
scalar tree_4_3_u03_r2_network.node[29].content_store 	hits[29] 	3244
scalar tree_4_3_u03_r2_network.node[29].content_store 	misses[29] 	8853
scalar tree_4_3_u03_r2_network.node[29].content_store 	decision_yes[29] 	280
scalar tree_4_3_u03_r2_network.node[29].content_store 	decision_no[29] 	8573
scalar tree_4_3_u03_r2_network.node[29].content_store 	decision_ratio[29] 	0.031627696825935
scalar tree_4_3_u03_r2_network.node[30].core_layer 	interests[30] 	12012
scalar tree_4_3_u03_r2_network.node[30].core_layer 	data[30] 	8737
scalar tree_4_3_u03_r2_network.node[30].content_store 	p_hit[30] 	0.27264402264402
scalar tree_4_3_u03_r2_network.node[30].content_store 	hits[30] 	3275
scalar tree_4_3_u03_r2_network.node[30].content_store 	misses[30] 	8737
scalar tree_4_3_u03_r2_network.node[30].content_store 	decision_yes[30] 	272
scalar tree_4_3_u03_r2_network.node[30].content_store 	decision_no[30] 	8465
scalar tree_4_3_u03_r2_network.node[30].content_store 	decision_ratio[30] 	0.031131967494563
scalar tree_4_3_u03_r2_network.node[31].core_layer 	interests[31] 	12017
scalar tree_4_3_u03_r2_network.node[31].core_layer 	data[31] 	8758
scalar tree_4_3_u03_r2_network.node[31].content_store 	p_hit[31] 	0.27119913455937
scalar tree_4_3_u03_r2_network.node[31].content_store 	hits[31] 	3259
scalar tree_4_3_u03_r2_network.node[31].content_store 	misses[31] 	8758
scalar tree_4_3_u03_r2_network.node[31].content_store 	decision_yes[31] 	238
scalar tree_4_3_u03_r2_network.node[31].content_store 	decision_no[31] 	8520
scalar tree_4_3_u03_r2_network.node[31].content_store 	decision_ratio[31] 	0.027175154144782
scalar tree_4_3_u03_r2_network.node[32].core_layer 	interests[32] 	11895
scalar tree_4_3_u03_r2_network.node[32].core_layer 	data[32] 	8733
scalar tree_4_3_u03_r2_network.node[32].content_store 	p_hit[32] 	0.26574190836486
scalar tree_4_3_u03_r2_network.node[32].content_store 	hits[32] 	3161
scalar tree_4_3_u03_r2_network.node[32].content_store 	misses[32] 	8734
scalar tree_4_3_u03_r2_network.node[32].content_store 	decision_yes[32] 	252
scalar tree_4_3_u03_r2_network.node[32].content_store 	decision_no[32] 	8481
scalar tree_4_3_u03_r2_network.node[32].content_store 	decision_ratio[32] 	0.028856063208519
scalar tree_4_3_u03_r2_network.node[33].core_layer 	interests[33] 	12011
scalar tree_4_3_u03_r2_network.node[33].core_layer 	data[33] 	8836
scalar tree_4_3_u03_r2_network.node[33].content_store 	p_hit[33] 	0.264341020731
scalar tree_4_3_u03_r2_network.node[33].content_store 	hits[33] 	3175
scalar tree_4_3_u03_r2_network.node[33].content_store 	misses[33] 	8836
scalar tree_4_3_u03_r2_network.node[33].content_store 	decision_yes[33] 	220
scalar tree_4_3_u03_r2_network.node[33].content_store 	decision_no[33] 	8616
scalar tree_4_3_u03_r2_network.node[33].content_store 	decision_ratio[33] 	0.024898143956541
scalar tree_4_3_u03_r2_network.node[34].core_layer 	interests[34] 	11883
scalar tree_4_3_u03_r2_network.node[34].core_layer 	data[34] 	8643
scalar tree_4_3_u03_r2_network.node[34].content_store 	p_hit[34] 	0.27265841959101
scalar tree_4_3_u03_r2_network.node[34].content_store 	hits[34] 	3240
scalar tree_4_3_u03_r2_network.node[34].content_store 	misses[34] 	8643
scalar tree_4_3_u03_r2_network.node[34].content_store 	decision_yes[34] 	277
scalar tree_4_3_u03_r2_network.node[34].content_store 	decision_no[34] 	8366
scalar tree_4_3_u03_r2_network.node[34].content_store 	decision_ratio[34] 	0.032049057040379
scalar tree_4_3_u03_r2_network.node[35].core_layer 	interests[35] 	12126
scalar tree_4_3_u03_r2_network.node[35].core_layer 	data[35] 	8906
scalar tree_4_3_u03_r2_network.node[35].content_store 	p_hit[35] 	0.26554510968168
scalar tree_4_3_u03_r2_network.node[35].content_store 	hits[35] 	3220
scalar tree_4_3_u03_r2_network.node[35].content_store 	misses[35] 	8906
scalar tree_4_3_u03_r2_network.node[35].content_store 	decision_yes[35] 	279
scalar tree_4_3_u03_r2_network.node[35].content_store 	decision_no[35] 	8627
scalar tree_4_3_u03_r2_network.node[35].content_store 	decision_ratio[35] 	0.031327195149338
scalar tree_4_3_u03_r2_network.node[36].core_layer 	interests[36] 	12022
scalar tree_4_3_u03_r2_network.node[36].core_layer 	data[36] 	8804
scalar tree_4_3_u03_r2_network.node[36].content_store 	p_hit[36] 	0.26767592746631
scalar tree_4_3_u03_r2_network.node[36].content_store 	hits[36] 	3218
scalar tree_4_3_u03_r2_network.node[36].content_store 	misses[36] 	8804
scalar tree_4_3_u03_r2_network.node[36].content_store 	decision_yes[36] 	297
scalar tree_4_3_u03_r2_network.node[36].content_store 	decision_no[36] 	8507
scalar tree_4_3_u03_r2_network.node[36].content_store 	decision_ratio[36] 	0.033734666060881
scalar tree_4_3_u03_r2_network.node[37].core_layer 	interests[37] 	11930
scalar tree_4_3_u03_r2_network.node[37].core_layer 	data[37] 	8759
scalar tree_4_3_u03_r2_network.node[37].content_store 	p_hit[37] 	0.26580050293378
scalar tree_4_3_u03_r2_network.node[37].content_store 	hits[37] 	3171
scalar tree_4_3_u03_r2_network.node[37].content_store 	misses[37] 	8759
scalar tree_4_3_u03_r2_network.node[37].content_store 	decision_yes[37] 	250
scalar tree_4_3_u03_r2_network.node[37].content_store 	decision_no[37] 	8509
scalar tree_4_3_u03_r2_network.node[37].content_store 	decision_ratio[37] 	0.028542071012673
scalar tree_4_3_u03_r2_network.node[38].core_layer 	interests[38] 	11722
scalar tree_4_3_u03_r2_network.node[38].core_layer 	data[38] 	8565
scalar tree_4_3_u03_r2_network.node[38].content_store 	p_hit[38] 	0.26932264118751
scalar tree_4_3_u03_r2_network.node[38].content_store 	hits[38] 	3157
scalar tree_4_3_u03_r2_network.node[38].content_store 	misses[38] 	8565
scalar tree_4_3_u03_r2_network.node[38].content_store 	decision_yes[38] 	235
scalar tree_4_3_u03_r2_network.node[38].content_store 	decision_no[38] 	8330
scalar tree_4_3_u03_r2_network.node[38].content_store 	decision_ratio[38] 	0.027437244600117
scalar tree_4_3_u03_r2_network.node[39].core_layer 	interests[39] 	11886
scalar tree_4_3_u03_r2_network.node[39].core_layer 	data[39] 	8811
scalar tree_4_3_u03_r2_network.node[39].content_store 	p_hit[39] 	0.25870772337203
scalar tree_4_3_u03_r2_network.node[39].content_store 	hits[39] 	3075
scalar tree_4_3_u03_r2_network.node[39].content_store 	misses[39] 	8811
scalar tree_4_3_u03_r2_network.node[39].content_store 	decision_yes[39] 	266
scalar tree_4_3_u03_r2_network.node[39].content_store 	decision_no[39] 	8545
scalar tree_4_3_u03_r2_network.node[39].content_store 	decision_ratio[39] 	0.030189535807513
scalar tree_4_3_u03_r2_network.client[13] 	hdistance[13] 	2.8308597960368
scalar tree_4_3_u03_r2_network.client[13] 	downloads[13] 	12061
scalar tree_4_3_u03_r2_network.client[13] 	avg_time[13] 	0.004279575773
scalar tree_4_3_u03_r2_network.client[14] 	hdistance[14] 	2.8536767760698
scalar tree_4_3_u03_r2_network.client[14] 	downloads[14] 	12035
scalar tree_4_3_u03_r2_network.client[14] 	avg_time[14] 	0.004313416175
scalar tree_4_3_u03_r2_network.client[15] 	hdistance[15] 	2.8430384001344
scalar tree_4_3_u03_r2_network.client[15] 	downloads[15] 	11901
scalar tree_4_3_u03_r2_network.client[15] 	avg_time[15] 	0.004295280786
scalar tree_4_3_u03_r2_network.client[16] 	hdistance[16] 	2.8453565846837
scalar tree_4_3_u03_r2_network.client[16] 	downloads[16] 	12157
scalar tree_4_3_u03_r2_network.client[16] 	avg_time[16] 	0.004298830427
scalar tree_4_3_u03_r2_network.client[17] 	hdistance[17] 	2.80561591175
scalar tree_4_3_u03_r2_network.client[17] 	downloads[17] 	11966
scalar tree_4_3_u03_r2_network.client[17] 	avg_time[17] 	0.004243018903
scalar tree_4_3_u03_r2_network.client[18] 	hdistance[18] 	2.8082743872347
scalar tree_4_3_u03_r2_network.client[18] 	downloads[18] 	12158
scalar tree_4_3_u03_r2_network.client[18] 	avg_time[18] 	0.004246917779
scalar tree_4_3_u03_r2_network.client[19] 	hdistance[19] 	2.824217435207
scalar tree_4_3_u03_r2_network.client[19] 	downloads[19] 	11884
scalar tree_4_3_u03_r2_network.client[19] 	avg_time[19] 	0.004268525666
scalar tree_4_3_u03_r2_network.client[20] 	hdistance[20] 	2.8483781745034
scalar tree_4_3_u03_r2_network.client[20] 	downloads[20] 	11931
scalar tree_4_3_u03_r2_network.client[20] 	avg_time[20] 	0.004308772456
scalar tree_4_3_u03_r2_network.client[21] 	hdistance[21] 	2.8252386534919
scalar tree_4_3_u03_r2_network.client[21] 	downloads[21] 	11942
scalar tree_4_3_u03_r2_network.client[21] 	avg_time[21] 	0.004276835106
scalar tree_4_3_u03_r2_network.client[22] 	hdistance[22] 	2.8033514872225
scalar tree_4_3_u03_r2_network.client[22] 	downloads[22] 	11935
scalar tree_4_3_u03_r2_network.client[22] 	avg_time[22] 	0.004238287746
scalar tree_4_3_u03_r2_network.client[23] 	hdistance[23] 	2.8332770840365
scalar tree_4_3_u03_r2_network.client[23] 	downloads[23] 	11852
scalar tree_4_3_u03_r2_network.client[23] 	avg_time[23] 	0.00428653093
scalar tree_4_3_u03_r2_network.client[24] 	hdistance[24] 	2.8563499295833
scalar tree_4_3_u03_r2_network.client[24] 	downloads[24] 	12071
scalar tree_4_3_u03_r2_network.client[24] 	avg_time[24] 	0.004317617691
scalar tree_4_3_u03_r2_network.client[25] 	hdistance[25] 	2.8755921216654
scalar tree_4_3_u03_r2_network.client[25] 	downloads[25] 	12033
scalar tree_4_3_u03_r2_network.client[25] 	avg_time[25] 	0.004348487306
scalar tree_4_3_u03_r2_network.client[26] 	hdistance[26] 	2.8510272571008
scalar tree_4_3_u03_r2_network.client[26] 	downloads[26] 	12217
scalar tree_4_3_u03_r2_network.client[26] 	avg_time[26] 	0.004314476767
scalar tree_4_3_u03_r2_network.client[27] 	hdistance[27] 	2.7941662535118
scalar tree_4_3_u03_r2_network.client[27] 	downloads[27] 	12102
scalar tree_4_3_u03_r2_network.client[27] 	avg_time[27] 	0.004228223694
scalar tree_4_3_u03_r2_network.client[28] 	hdistance[28] 	2.8252435267671
scalar tree_4_3_u03_r2_network.client[28] 	downloads[28] 	12011
scalar tree_4_3_u03_r2_network.client[28] 	avg_time[28] 	0.004272080919
scalar tree_4_3_u03_r2_network.client[29] 	hdistance[29] 	2.8184673886088
scalar tree_4_3_u03_r2_network.client[29] 	downloads[29] 	12097
scalar tree_4_3_u03_r2_network.client[29] 	avg_time[29] 	0.004266178679
scalar tree_4_3_u03_r2_network.client[30] 	hdistance[30] 	2.8037795537796
scalar tree_4_3_u03_r2_network.client[30] 	downloads[30] 	12012
scalar tree_4_3_u03_r2_network.client[30] 	avg_time[30] 	0.004242254738
scalar tree_4_3_u03_r2_network.client[31] 	hdistance[31] 	2.828076891071
scalar tree_4_3_u03_r2_network.client[31] 	downloads[31] 	12017
scalar tree_4_3_u03_r2_network.client[31] 	avg_time[31] 	0.004274441507
scalar tree_4_3_u03_r2_network.client[32] 	hdistance[32] 	2.8478224314781
scalar tree_4_3_u03_r2_network.client[32] 	downloads[32] 	11894
scalar tree_4_3_u03_r2_network.client[32] 	avg_time[32] 	0.004301325415
scalar tree_4_3_u03_r2_network.client[33] 	hdistance[33] 	2.8589626176005
scalar tree_4_3_u03_r2_network.client[33] 	downloads[33] 	12011
scalar tree_4_3_u03_r2_network.client[33] 	avg_time[33] 	0.004320036945
scalar tree_4_3_u03_r2_network.client[34] 	hdistance[34] 	2.8061095682908
scalar tree_4_3_u03_r2_network.client[34] 	downloads[34] 	11883
scalar tree_4_3_u03_r2_network.client[34] 	avg_time[34] 	0.004243706551
scalar tree_4_3_u03_r2_network.client[35] 	hdistance[35] 	2.8327560613558
scalar tree_4_3_u03_r2_network.client[35] 	downloads[35] 	12126
scalar tree_4_3_u03_r2_network.client[35] 	avg_time[35] 	0.004285994003
scalar tree_4_3_u03_r2_network.client[36] 	hdistance[36] 	2.8211612044585
scalar tree_4_3_u03_r2_network.client[36] 	downloads[36] 	12022
scalar tree_4_3_u03_r2_network.client[36] 	avg_time[36] 	0.00426817201
scalar tree_4_3_u03_r2_network.client[37] 	hdistance[37] 	2.8481139983236
scalar tree_4_3_u03_r2_network.client[37] 	downloads[37] 	11930
scalar tree_4_3_u03_r2_network.client[37] 	avg_time[37] 	0.004302763165
scalar tree_4_3_u03_r2_network.client[38] 	hdistance[38] 	2.8321105613376
scalar tree_4_3_u03_r2_network.client[38] 	downloads[38] 	11722
scalar tree_4_3_u03_r2_network.client[38] 	avg_time[38] 	0.004280836528
scalar tree_4_3_u03_r2_network.client[39] 	hdistance[39] 	2.8700992764597
scalar tree_4_3_u03_r2_network.client[39] 	downloads[39] 	11886
scalar tree_4_3_u03_r2_network.client[39] 	avg_time[39] 	0.004337032146
