version 2
run General-68-20160820-07:50:40-856
attr a 0.9
attr cd lcd
attr configname General
attr cr lru
attr datetime 20160820-07:50:40
attr experiment General
attr fsize 1
attr inifile hw5115/scenario_A/SPR-LCD.ini
attr iterationvars "$name=tree_4_3, $un=03, $rep=9, $cd=lcd, $cr=lru, $fsize=1, $a=0.9, $sl=spr, $ttl=1000, $variance=0.05"
attr iterationvars2 "$name=tree_4_3, $un=03, $rep=9, $cd=lcd, $cr=lru, $fsize=1, $a=0.9, $sl=spr, $ttl=1000, $variance=0.05, $repetition=0"
attr measurement "$name=tree_4_3, $un=03, $rep=9, $cd=lcd, $cr=lru, $fsize=1, $a=0.9, $sl=spr, $ttl=1000, $variance=0.05"
attr name tree_4_3
attr network networks.${name}_u${un}_r${rep}_network
attr processid 856
attr rep 9
attr repetition 0
attr replication #0
attr resultdir results
attr runnumber 68
attr seedset 9
attr sl spr
attr ttl 1000
attr un 03
attr variance 0.05

scalar . 	a 	0.9
scalar . 	fsize 	1
scalar . 	rep 	9
scalar . 	ttl 	1000
scalar . 	un 	03
scalar . 	variance 	0.05
scalar tree_4_3_u03_r9_network.content_distribution 	repo-0 	0
scalar tree_4_3_u03_r9_network.content_distribution 	client-0 	13
scalar tree_4_3_u03_r9_network.content_distribution 	client-1 	14
scalar tree_4_3_u03_r9_network.content_distribution 	client-2 	15
scalar tree_4_3_u03_r9_network.content_distribution 	client-3 	16
scalar tree_4_3_u03_r9_network.content_distribution 	client-4 	17
scalar tree_4_3_u03_r9_network.content_distribution 	client-5 	18
scalar tree_4_3_u03_r9_network.content_distribution 	client-6 	19
scalar tree_4_3_u03_r9_network.content_distribution 	client-7 	20
scalar tree_4_3_u03_r9_network.content_distribution 	client-8 	21
scalar tree_4_3_u03_r9_network.content_distribution 	client-9 	22
scalar tree_4_3_u03_r9_network.content_distribution 	client-10 	23
scalar tree_4_3_u03_r9_network.content_distribution 	client-11 	24
scalar tree_4_3_u03_r9_network.content_distribution 	client-12 	25
scalar tree_4_3_u03_r9_network.content_distribution 	client-13 	26
scalar tree_4_3_u03_r9_network.content_distribution 	client-14 	27
scalar tree_4_3_u03_r9_network.content_distribution 	client-15 	28
scalar tree_4_3_u03_r9_network.content_distribution 	client-16 	29
scalar tree_4_3_u03_r9_network.content_distribution 	client-17 	30
scalar tree_4_3_u03_r9_network.content_distribution 	client-18 	31
scalar tree_4_3_u03_r9_network.content_distribution 	client-19 	32
scalar tree_4_3_u03_r9_network.content_distribution 	client-20 	33
scalar tree_4_3_u03_r9_network.content_distribution 	client-21 	34
scalar tree_4_3_u03_r9_network.content_distribution 	client-22 	35
scalar tree_4_3_u03_r9_network.content_distribution 	client-23 	36
scalar tree_4_3_u03_r9_network.content_distribution 	client-24 	37
scalar tree_4_3_u03_r9_network.content_distribution 	client-25 	38
scalar tree_4_3_u03_r9_network.content_distribution 	client-26 	39
scalar tree_4_3_u03_r9_network.content_distribution 	repo-0_card 	100000
scalar tree_4_3_u03_r9_network.content_distribution 	repo-0_price 	0
scalar tree_4_3_u03_r9_network.statistics 	stabilization_time 	1004.3
scalar tree_4_3_u03_r9_network.statistics 	p_hit 	0.1878295128401
scalar tree_4_3_u03_r9_network.statistics 	interests 	25376.175
scalar tree_4_3_u03_r9_network.statistics 	data 	17306.65
scalar tree_4_3_u03_r9_network.statistics 	hdistance 	2.836691727201
scalar tree_4_3_u03_r9_network.statistics 	avg_time 	0.004289434265
scalar tree_4_3_u03_r9_network.statistics 	downloads 	322780
scalar tree_4_3_u03_r9_network.statistics 	total_cost 	0
scalar tree_4_3_u03_r9_network.statistics 	total_replicas 	100000
scalar tree_4_3_u03_r9_network.statistics 	inner_hit 	0.30809219902101
scalar tree_4_3_u03_r9_network.node[0].core_layer 	interests[0] 	225566
scalar tree_4_3_u03_r9_network.node[0].core_layer 	repo_load[0] 	223334
scalar tree_4_3_u03_r9_network.node[0].core_layer 	data[0] 	0
scalar tree_4_3_u03_r9_network.node[0].core_layer 	repo_int[0] 	223334
scalar tree_4_3_u03_r9_network.node[0].content_store 	p_hit[0] 	0.0098951083053297
scalar tree_4_3_u03_r9_network.node[0].content_store 	hits[0] 	2232
scalar tree_4_3_u03_r9_network.node[0].content_store 	misses[0] 	223334
scalar tree_4_3_u03_r9_network.node[0].content_store 	decision_yes[0] 	223334
scalar tree_4_3_u03_r9_network.node[0].content_store 	decision_no[0] 	0
scalar tree_4_3_u03_r9_network.node[0].content_store 	decision_ratio[0] 	1
scalar tree_4_3_u03_r9_network.node[1].core_layer 	interests[1] 	76879
scalar tree_4_3_u03_r9_network.node[1].core_layer 	data[1] 	75515
scalar tree_4_3_u03_r9_network.node[1].content_store 	p_hit[1] 	0.017716151354726
scalar tree_4_3_u03_r9_network.node[1].content_store 	hits[1] 	1362
scalar tree_4_3_u03_r9_network.node[1].content_store 	misses[1] 	75517
scalar tree_4_3_u03_r9_network.node[1].content_store 	decision_yes[1] 	755
scalar tree_4_3_u03_r9_network.node[1].content_store 	decision_no[1] 	74760
scalar tree_4_3_u03_r9_network.node[1].content_store 	decision_ratio[1] 	0.0099980136396742
scalar tree_4_3_u03_r9_network.node[2].core_layer 	interests[2] 	101702
scalar tree_4_3_u03_r9_network.node[2].core_layer 	data[2] 	99689
scalar tree_4_3_u03_r9_network.node[2].content_store 	p_hit[2] 	0.01977345578258
scalar tree_4_3_u03_r9_network.node[2].content_store 	hits[2] 	2011
scalar tree_4_3_u03_r9_network.node[2].content_store 	misses[2] 	99691
scalar tree_4_3_u03_r9_network.node[2].content_store 	decision_yes[2] 	988
scalar tree_4_3_u03_r9_network.node[2].content_store 	decision_no[2] 	98701
scalar tree_4_3_u03_r9_network.node[2].content_store 	decision_ratio[2] 	0.0099108226584678
scalar tree_4_3_u03_r9_network.node[3].core_layer 	interests[3] 	51073
scalar tree_4_3_u03_r9_network.node[3].core_layer 	data[3] 	50362
scalar tree_4_3_u03_r9_network.node[3].content_store 	p_hit[3] 	0.013882090341276
scalar tree_4_3_u03_r9_network.node[3].content_store 	hits[3] 	709
scalar tree_4_3_u03_r9_network.node[3].content_store 	misses[3] 	50364
scalar tree_4_3_u03_r9_network.node[3].content_store 	decision_yes[3] 	489
scalar tree_4_3_u03_r9_network.node[3].content_store 	decision_no[3] 	49873
scalar tree_4_3_u03_r9_network.node[3].content_store 	decision_ratio[3] 	0.0097097017592629
scalar tree_4_3_u03_r9_network.node[4].core_layer 	interests[4] 	26496
scalar tree_4_3_u03_r9_network.node[4].core_layer 	data[4] 	25677
scalar tree_4_3_u03_r9_network.node[4].content_store 	p_hit[4] 	0.030910326086957
scalar tree_4_3_u03_r9_network.node[4].content_store 	hits[4] 	819
scalar tree_4_3_u03_r9_network.node[4].content_store 	misses[4] 	25677
scalar tree_4_3_u03_r9_network.node[4].content_store 	decision_yes[4] 	445
scalar tree_4_3_u03_r9_network.node[4].content_store 	decision_no[4] 	25232
scalar tree_4_3_u03_r9_network.node[4].content_store 	decision_ratio[4] 	0.017330685048876
scalar tree_4_3_u03_r9_network.node[5].core_layer 	interests[5] 	26524
scalar tree_4_3_u03_r9_network.node[5].core_layer 	data[5] 	25666
scalar tree_4_3_u03_r9_network.node[5].content_store 	p_hit[5] 	0.032348062132408
scalar tree_4_3_u03_r9_network.node[5].content_store 	hits[5] 	858
scalar tree_4_3_u03_r9_network.node[5].content_store 	misses[5] 	25666
scalar tree_4_3_u03_r9_network.node[5].content_store 	decision_yes[5] 	456
scalar tree_4_3_u03_r9_network.node[5].content_store 	decision_no[5] 	25210
scalar tree_4_3_u03_r9_network.node[5].content_store 	decision_ratio[5] 	0.017766695238837
scalar tree_4_3_u03_r9_network.node[6].core_layer 	interests[6] 	26360
scalar tree_4_3_u03_r9_network.node[6].core_layer 	data[6] 	25536
scalar tree_4_3_u03_r9_network.node[6].content_store 	p_hit[6] 	0.031221547799697
scalar tree_4_3_u03_r9_network.node[6].content_store 	hits[6] 	823
scalar tree_4_3_u03_r9_network.node[6].content_store 	misses[6] 	25537
scalar tree_4_3_u03_r9_network.node[6].content_store 	decision_yes[6] 	461
scalar tree_4_3_u03_r9_network.node[6].content_store 	decision_no[6] 	25075
scalar tree_4_3_u03_r9_network.node[6].content_store 	decision_ratio[6] 	0.018052944862155
scalar tree_4_3_u03_r9_network.node[7].core_layer 	interests[7] 	26059
scalar tree_4_3_u03_r9_network.node[7].core_layer 	data[7] 	25186
scalar tree_4_3_u03_r9_network.node[7].content_store 	p_hit[7] 	0.033500901799762
scalar tree_4_3_u03_r9_network.node[7].content_store 	hits[7] 	873
scalar tree_4_3_u03_r9_network.node[7].content_store 	misses[7] 	25186
scalar tree_4_3_u03_r9_network.node[7].content_store 	decision_yes[7] 	491
scalar tree_4_3_u03_r9_network.node[7].content_store 	decision_no[7] 	24695
scalar tree_4_3_u03_r9_network.node[7].content_store 	decision_ratio[7] 	0.01949495751608
scalar tree_4_3_u03_r9_network.node[8].core_layer 	interests[8] 	26613
scalar tree_4_3_u03_r9_network.node[8].core_layer 	data[8] 	25752
scalar tree_4_3_u03_r9_network.node[8].content_store 	p_hit[8] 	0.032390185247811
scalar tree_4_3_u03_r9_network.node[8].content_store 	hits[8] 	862
scalar tree_4_3_u03_r9_network.node[8].content_store 	misses[8] 	25751
scalar tree_4_3_u03_r9_network.node[8].content_store 	decision_yes[8] 	519
scalar tree_4_3_u03_r9_network.node[8].content_store 	decision_no[8] 	25233
scalar tree_4_3_u03_r9_network.node[8].content_store 	decision_ratio[8] 	0.020153774464119
scalar tree_4_3_u03_r9_network.node[9].core_layer 	interests[9] 	26311
scalar tree_4_3_u03_r9_network.node[9].core_layer 	data[9] 	25465
scalar tree_4_3_u03_r9_network.node[9].content_store 	p_hit[9] 	0.032153852001064
scalar tree_4_3_u03_r9_network.node[9].content_store 	hits[9] 	846
scalar tree_4_3_u03_r9_network.node[9].content_store 	misses[9] 	25465
scalar tree_4_3_u03_r9_network.node[9].content_store 	decision_yes[9] 	481
scalar tree_4_3_u03_r9_network.node[9].content_store 	decision_no[9] 	24984
scalar tree_4_3_u03_r9_network.node[9].content_store 	decision_ratio[9] 	0.018888670724524
scalar tree_4_3_u03_r9_network.node[10].core_layer 	interests[10] 	26409
scalar tree_4_3_u03_r9_network.node[10].core_layer 	data[10] 	25676
scalar tree_4_3_u03_r9_network.node[10].content_store 	p_hit[10] 	0.027717823469272
scalar tree_4_3_u03_r9_network.node[10].content_store 	hits[10] 	732
scalar tree_4_3_u03_r9_network.node[10].content_store 	misses[10] 	25677
scalar tree_4_3_u03_r9_network.node[10].content_store 	decision_yes[10] 	356
scalar tree_4_3_u03_r9_network.node[10].content_store 	decision_no[10] 	25320
scalar tree_4_3_u03_r9_network.node[10].content_store 	decision_ratio[10] 	0.013865088019941
scalar tree_4_3_u03_r9_network.node[11].core_layer 	interests[11] 	26157
scalar tree_4_3_u03_r9_network.node[11].core_layer 	data[11] 	25301
scalar tree_4_3_u03_r9_network.node[11].content_store 	p_hit[11] 	0.03268723477463
scalar tree_4_3_u03_r9_network.node[11].content_store 	hits[11] 	855
scalar tree_4_3_u03_r9_network.node[11].content_store 	misses[11] 	25302
scalar tree_4_3_u03_r9_network.node[11].content_store 	decision_yes[11] 	520
scalar tree_4_3_u03_r9_network.node[11].content_store 	decision_no[11] 	24781
scalar tree_4_3_u03_r9_network.node[11].content_store 	decision_ratio[11] 	0.020552547330145
scalar tree_4_3_u03_r9_network.node[12].core_layer 	interests[12] 	26113
scalar tree_4_3_u03_r9_network.node[12].core_layer 	data[12] 	25397
scalar tree_4_3_u03_r9_network.node[12].content_store 	p_hit[12] 	0.027419293072416
scalar tree_4_3_u03_r9_network.node[12].content_store 	hits[12] 	716
scalar tree_4_3_u03_r9_network.node[12].content_store 	misses[12] 	25397
scalar tree_4_3_u03_r9_network.node[12].content_store 	decision_yes[12] 	353
scalar tree_4_3_u03_r9_network.node[12].content_store 	decision_no[12] 	25044
scalar tree_4_3_u03_r9_network.node[12].content_store 	decision_ratio[12] 	0.013899279442454
scalar tree_4_3_u03_r9_network.node[13].core_layer 	interests[13] 	11803
scalar tree_4_3_u03_r9_network.node[13].core_layer 	data[13] 	8662
scalar tree_4_3_u03_r9_network.node[13].content_store 	p_hit[13] 	0.26603405913751
scalar tree_4_3_u03_r9_network.node[13].content_store 	hits[13] 	3140
scalar tree_4_3_u03_r9_network.node[13].content_store 	misses[13] 	8663
scalar tree_4_3_u03_r9_network.node[13].content_store 	decision_yes[13] 	283
scalar tree_4_3_u03_r9_network.node[13].content_store 	decision_no[13] 	8379
scalar tree_4_3_u03_r9_network.node[13].content_store 	decision_ratio[13] 	0.032671438466867
scalar tree_4_3_u03_r9_network.node[14].core_layer 	interests[14] 	12045
scalar tree_4_3_u03_r9_network.node[14].core_layer 	data[14] 	8760
scalar tree_4_3_u03_r9_network.node[14].content_store 	p_hit[14] 	0.27272727272727
scalar tree_4_3_u03_r9_network.node[14].content_store 	hits[14] 	3285
scalar tree_4_3_u03_r9_network.node[14].content_store 	misses[14] 	8760
scalar tree_4_3_u03_r9_network.node[14].content_store 	decision_yes[14] 	264
scalar tree_4_3_u03_r9_network.node[14].content_store 	decision_no[14] 	8496
scalar tree_4_3_u03_r9_network.node[14].content_store 	decision_ratio[14] 	0.03013698630137
scalar tree_4_3_u03_r9_network.node[15].core_layer 	interests[15] 	12119
scalar tree_4_3_u03_r9_network.node[15].core_layer 	data[15] 	9074
scalar tree_4_3_u03_r9_network.node[15].content_store 	p_hit[15] 	0.25125835464972
scalar tree_4_3_u03_r9_network.node[15].content_store 	hits[15] 	3045
scalar tree_4_3_u03_r9_network.node[15].content_store 	misses[15] 	9074
scalar tree_4_3_u03_r9_network.node[15].content_store 	decision_yes[15] 	272
scalar tree_4_3_u03_r9_network.node[15].content_store 	decision_no[15] 	8802
scalar tree_4_3_u03_r9_network.node[15].content_store 	decision_ratio[15] 	0.029975754904122
scalar tree_4_3_u03_r9_network.node[16].core_layer 	interests[16] 	12159
scalar tree_4_3_u03_r9_network.node[16].core_layer 	data[16] 	8820
scalar tree_4_3_u03_r9_network.node[16].content_store 	p_hit[16] 	0.27461139896373
scalar tree_4_3_u03_r9_network.node[16].content_store 	hits[16] 	3339
scalar tree_4_3_u03_r9_network.node[16].content_store 	misses[16] 	8820
scalar tree_4_3_u03_r9_network.node[16].content_store 	decision_yes[16] 	275
scalar tree_4_3_u03_r9_network.node[16].content_store 	decision_no[16] 	8545
scalar tree_4_3_u03_r9_network.node[16].content_store 	decision_ratio[16] 	0.031179138321995
scalar tree_4_3_u03_r9_network.node[17].core_layer 	interests[17] 	12027
scalar tree_4_3_u03_r9_network.node[17].core_layer 	data[17] 	8809
scalar tree_4_3_u03_r9_network.node[17].content_store 	p_hit[17] 	0.26756464621269
scalar tree_4_3_u03_r9_network.node[17].content_store 	hits[17] 	3218
scalar tree_4_3_u03_r9_network.node[17].content_store 	misses[17] 	8809
scalar tree_4_3_u03_r9_network.node[17].content_store 	decision_yes[17] 	307
scalar tree_4_3_u03_r9_network.node[17].content_store 	decision_no[17] 	8502
scalar tree_4_3_u03_r9_network.node[17].content_store 	decision_ratio[17] 	0.034850720853672
scalar tree_4_3_u03_r9_network.node[18].core_layer 	interests[18] 	12113
scalar tree_4_3_u03_r9_network.node[18].core_layer 	data[18] 	8895
scalar tree_4_3_u03_r9_network.node[18].content_store 	p_hit[18] 	0.26558243209775
scalar tree_4_3_u03_r9_network.node[18].content_store 	hits[18] 	3217
scalar tree_4_3_u03_r9_network.node[18].content_store 	misses[18] 	8896
scalar tree_4_3_u03_r9_network.node[18].content_store 	decision_yes[18] 	276
scalar tree_4_3_u03_r9_network.node[18].content_store 	decision_no[18] 	8619
scalar tree_4_3_u03_r9_network.node[18].content_store 	decision_ratio[18] 	0.031028667790894
scalar tree_4_3_u03_r9_network.node[19].core_layer 	interests[19] 	11843
scalar tree_4_3_u03_r9_network.node[19].core_layer 	data[19] 	8754
scalar tree_4_3_u03_r9_network.node[19].content_store 	p_hit[19] 	0.26082918179515
scalar tree_4_3_u03_r9_network.node[19].content_store 	hits[19] 	3089
scalar tree_4_3_u03_r9_network.node[19].content_store 	misses[19] 	8754
scalar tree_4_3_u03_r9_network.node[19].content_store 	decision_yes[19] 	276
scalar tree_4_3_u03_r9_network.node[19].content_store 	decision_no[19] 	8478
scalar tree_4_3_u03_r9_network.node[19].content_store 	decision_ratio[19] 	0.031528444139822
scalar tree_4_3_u03_r9_network.node[20].core_layer 	interests[20] 	11913
scalar tree_4_3_u03_r9_network.node[20].core_layer 	data[20] 	8788
scalar tree_4_3_u03_r9_network.node[20].content_store 	p_hit[20] 	0.26231847561487
scalar tree_4_3_u03_r9_network.node[20].content_store 	hits[20] 	3125
scalar tree_4_3_u03_r9_network.node[20].content_store 	misses[20] 	8788
scalar tree_4_3_u03_r9_network.node[20].content_store 	decision_yes[20] 	274
scalar tree_4_3_u03_r9_network.node[20].content_store 	decision_no[20] 	8514
scalar tree_4_3_u03_r9_network.node[20].content_store 	decision_ratio[20] 	0.031178880291306
scalar tree_4_3_u03_r9_network.node[21].core_layer 	interests[21] 	12059
scalar tree_4_3_u03_r9_network.node[21].core_layer 	data[21] 	8818
scalar tree_4_3_u03_r9_network.node[21].content_store 	p_hit[21] 	0.26876192055726
scalar tree_4_3_u03_r9_network.node[21].content_store 	hits[21] 	3241
scalar tree_4_3_u03_r9_network.node[21].content_store 	misses[21] 	8818
scalar tree_4_3_u03_r9_network.node[21].content_store 	decision_yes[21] 	273
scalar tree_4_3_u03_r9_network.node[21].content_store 	decision_no[21] 	8545
scalar tree_4_3_u03_r9_network.node[21].content_store 	decision_ratio[21] 	0.030959401224768
scalar tree_4_3_u03_r9_network.node[22].core_layer 	interests[22] 	11900
scalar tree_4_3_u03_r9_network.node[22].core_layer 	data[22] 	8765
scalar tree_4_3_u03_r9_network.node[22].content_store 	p_hit[22] 	0.26344537815126
scalar tree_4_3_u03_r9_network.node[22].content_store 	hits[22] 	3135
scalar tree_4_3_u03_r9_network.node[22].content_store 	misses[22] 	8765
scalar tree_4_3_u03_r9_network.node[22].content_store 	decision_yes[22] 	308
scalar tree_4_3_u03_r9_network.node[22].content_store 	decision_no[22] 	8457
scalar tree_4_3_u03_r9_network.node[22].content_store 	decision_ratio[22] 	0.035139760410724
scalar tree_4_3_u03_r9_network.node[23].core_layer 	interests[23] 	11829
scalar tree_4_3_u03_r9_network.node[23].core_layer 	data[23] 	8684
scalar tree_4_3_u03_r9_network.node[23].content_store 	p_hit[23] 	0.26587200946826
scalar tree_4_3_u03_r9_network.node[23].content_store 	hits[23] 	3145
scalar tree_4_3_u03_r9_network.node[23].content_store 	misses[23] 	8684
scalar tree_4_3_u03_r9_network.node[23].content_store 	decision_yes[23] 	293
scalar tree_4_3_u03_r9_network.node[23].content_store 	decision_no[23] 	8391
scalar tree_4_3_u03_r9_network.node[23].content_store 	decision_ratio[23] 	0.033740211883924
scalar tree_4_3_u03_r9_network.node[24].core_layer 	interests[24] 	11777
scalar tree_4_3_u03_r9_network.node[24].core_layer 	data[24] 	8611
scalar tree_4_3_u03_r9_network.node[24].content_store 	p_hit[24] 	0.26865925108262
scalar tree_4_3_u03_r9_network.node[24].content_store 	hits[24] 	3164
scalar tree_4_3_u03_r9_network.node[24].content_store 	misses[24] 	8613
scalar tree_4_3_u03_r9_network.node[24].content_store 	decision_yes[24] 	272
scalar tree_4_3_u03_r9_network.node[24].content_store 	decision_no[24] 	8339
scalar tree_4_3_u03_r9_network.node[24].content_store 	decision_ratio[24] 	0.031587504354895
scalar tree_4_3_u03_r9_network.node[25].core_layer 	interests[25] 	11954
scalar tree_4_3_u03_r9_network.node[25].core_layer 	data[25] 	8889
scalar tree_4_3_u03_r9_network.node[25].content_store 	p_hit[25] 	0.25639953153756
scalar tree_4_3_u03_r9_network.node[25].content_store 	hits[25] 	3065
scalar tree_4_3_u03_r9_network.node[25].content_store 	misses[25] 	8889
scalar tree_4_3_u03_r9_network.node[25].content_store 	decision_yes[25] 	292
scalar tree_4_3_u03_r9_network.node[25].content_store 	decision_no[25] 	8597
scalar tree_4_3_u03_r9_network.node[25].content_store 	decision_ratio[25] 	0.032849589380133
scalar tree_4_3_u03_r9_network.node[26].core_layer 	interests[26] 	11979
scalar tree_4_3_u03_r9_network.node[26].core_layer 	data[26] 	8803
scalar tree_4_3_u03_r9_network.node[26].content_store 	p_hit[26] 	0.26513064529593
scalar tree_4_3_u03_r9_network.node[26].content_store 	hits[26] 	3176
scalar tree_4_3_u03_r9_network.node[26].content_store 	misses[26] 	8803
scalar tree_4_3_u03_r9_network.node[26].content_store 	decision_yes[26] 	275
scalar tree_4_3_u03_r9_network.node[26].content_store 	decision_no[26] 	8528
scalar tree_4_3_u03_r9_network.node[26].content_store 	decision_ratio[26] 	0.031239350221515
scalar tree_4_3_u03_r9_network.node[27].core_layer 	interests[27] 	12080
scalar tree_4_3_u03_r9_network.node[27].core_layer 	data[27] 	8922
scalar tree_4_3_u03_r9_network.node[27].content_store 	p_hit[27] 	0.26150662251656
scalar tree_4_3_u03_r9_network.node[27].content_store 	hits[27] 	3159
scalar tree_4_3_u03_r9_network.node[27].content_store 	misses[27] 	8921
scalar tree_4_3_u03_r9_network.node[27].content_store 	decision_yes[27] 	295
scalar tree_4_3_u03_r9_network.node[27].content_store 	decision_no[27] 	8627
scalar tree_4_3_u03_r9_network.node[27].content_store 	decision_ratio[27] 	0.033064335350818
scalar tree_4_3_u03_r9_network.node[28].core_layer 	interests[28] 	12025
scalar tree_4_3_u03_r9_network.node[28].core_layer 	data[28] 	8727
scalar tree_4_3_u03_r9_network.node[28].content_store 	p_hit[28] 	0.27426195426195
scalar tree_4_3_u03_r9_network.node[28].content_store 	hits[28] 	3298
scalar tree_4_3_u03_r9_network.node[28].content_store 	misses[28] 	8727
scalar tree_4_3_u03_r9_network.node[28].content_store 	decision_yes[28] 	293
scalar tree_4_3_u03_r9_network.node[28].content_store 	decision_no[28] 	8434
scalar tree_4_3_u03_r9_network.node[28].content_store 	decision_ratio[28] 	0.0335739658531
scalar tree_4_3_u03_r9_network.node[29].core_layer 	interests[29] 	12017
scalar tree_4_3_u03_r9_network.node[29].core_layer 	data[29] 	8893
scalar tree_4_3_u03_r9_network.node[29].content_store 	p_hit[29] 	0.25996504951319
scalar tree_4_3_u03_r9_network.node[29].content_store 	hits[29] 	3124
scalar tree_4_3_u03_r9_network.node[29].content_store 	misses[29] 	8893
scalar tree_4_3_u03_r9_network.node[29].content_store 	decision_yes[29] 	282
scalar tree_4_3_u03_r9_network.node[29].content_store 	decision_no[29] 	8611
scalar tree_4_3_u03_r9_network.node[29].content_store 	decision_ratio[29] 	0.031710333970539
scalar tree_4_3_u03_r9_network.node[30].core_layer 	interests[30] 	11873
scalar tree_4_3_u03_r9_network.node[30].core_layer 	data[30] 	8691
scalar tree_4_3_u03_r9_network.node[30].content_store 	p_hit[30] 	0.26800303208962
scalar tree_4_3_u03_r9_network.node[30].content_store 	hits[30] 	3182
scalar tree_4_3_u03_r9_network.node[30].content_store 	misses[30] 	8691
scalar tree_4_3_u03_r9_network.node[30].content_store 	decision_yes[30] 	271
scalar tree_4_3_u03_r9_network.node[30].content_store 	decision_no[30] 	8420
scalar tree_4_3_u03_r9_network.node[30].content_store 	decision_ratio[30] 	0.031181682199977
scalar tree_4_3_u03_r9_network.node[31].core_layer 	interests[31] 	12140
scalar tree_4_3_u03_r9_network.node[31].core_layer 	data[31] 	8890
scalar tree_4_3_u03_r9_network.node[31].content_store 	p_hit[31] 	0.26771004942339
scalar tree_4_3_u03_r9_network.node[31].content_store 	hits[31] 	3250
scalar tree_4_3_u03_r9_network.node[31].content_store 	misses[31] 	8890
scalar tree_4_3_u03_r9_network.node[31].content_store 	decision_yes[31] 	244
scalar tree_4_3_u03_r9_network.node[31].content_store 	decision_no[31] 	8646
scalar tree_4_3_u03_r9_network.node[31].content_store 	decision_ratio[31] 	0.027446569178853
scalar tree_4_3_u03_r9_network.node[32].core_layer 	interests[32] 	12071
scalar tree_4_3_u03_r9_network.node[32].core_layer 	data[32] 	8867
scalar tree_4_3_u03_r9_network.node[32].content_store 	p_hit[32] 	0.26542954187723
scalar tree_4_3_u03_r9_network.node[32].content_store 	hits[32] 	3204
scalar tree_4_3_u03_r9_network.node[32].content_store 	misses[32] 	8867
scalar tree_4_3_u03_r9_network.node[32].content_store 	decision_yes[32] 	264
scalar tree_4_3_u03_r9_network.node[32].content_store 	decision_no[32] 	8603
scalar tree_4_3_u03_r9_network.node[32].content_store 	decision_ratio[32] 	0.029773316792602
scalar tree_4_3_u03_r9_network.node[33].core_layer 	interests[33] 	11792
scalar tree_4_3_u03_r9_network.node[33].core_layer 	data[33] 	8652
scalar tree_4_3_u03_r9_network.node[33].content_store 	p_hit[33] 	0.26628222523745
scalar tree_4_3_u03_r9_network.node[33].content_store 	hits[33] 	3140
scalar tree_4_3_u03_r9_network.node[33].content_store 	misses[33] 	8652
scalar tree_4_3_u03_r9_network.node[33].content_store 	decision_yes[33] 	224
scalar tree_4_3_u03_r9_network.node[33].content_store 	decision_no[33] 	8428
scalar tree_4_3_u03_r9_network.node[33].content_store 	decision_ratio[33] 	0.02588996763754
scalar tree_4_3_u03_r9_network.node[34].core_layer 	interests[34] 	11887
scalar tree_4_3_u03_r9_network.node[34].core_layer 	data[34] 	8788
scalar tree_4_3_u03_r9_network.node[34].content_store 	p_hit[34] 	0.26070497181795
scalar tree_4_3_u03_r9_network.node[34].content_store 	hits[34] 	3099
scalar tree_4_3_u03_r9_network.node[34].content_store 	misses[34] 	8788
scalar tree_4_3_u03_r9_network.node[34].content_store 	decision_yes[34] 	284
scalar tree_4_3_u03_r9_network.node[34].content_store 	decision_no[34] 	8504
scalar tree_4_3_u03_r9_network.node[34].content_store 	decision_ratio[34] 	0.032316795630405
scalar tree_4_3_u03_r9_network.node[35].core_layer 	interests[35] 	11902
scalar tree_4_3_u03_r9_network.node[35].core_layer 	data[35] 	8639
scalar tree_4_3_u03_r9_network.node[35].content_store 	p_hit[35] 	0.27415560410015
scalar tree_4_3_u03_r9_network.node[35].content_store 	hits[35] 	3263
scalar tree_4_3_u03_r9_network.node[35].content_store 	misses[35] 	8639
scalar tree_4_3_u03_r9_network.node[35].content_store 	decision_yes[35] 	278
scalar tree_4_3_u03_r9_network.node[35].content_store 	decision_no[35] 	8361
scalar tree_4_3_u03_r9_network.node[35].content_store 	decision_ratio[35] 	0.032179650422503
scalar tree_4_3_u03_r9_network.node[36].core_layer 	interests[36] 	11884
scalar tree_4_3_u03_r9_network.node[36].core_layer 	data[36] 	8730
scalar tree_4_3_u03_r9_network.node[36].content_store 	p_hit[36] 	0.26539885560417
scalar tree_4_3_u03_r9_network.node[36].content_store 	hits[36] 	3154
scalar tree_4_3_u03_r9_network.node[36].content_store 	misses[36] 	8730
scalar tree_4_3_u03_r9_network.node[36].content_store 	decision_yes[36] 	293
scalar tree_4_3_u03_r9_network.node[36].content_store 	decision_no[36] 	8437
scalar tree_4_3_u03_r9_network.node[36].content_store 	decision_ratio[36] 	0.033562428407789
scalar tree_4_3_u03_r9_network.node[37].core_layer 	interests[37] 	11774
scalar tree_4_3_u03_r9_network.node[37].core_layer 	data[37] 	8650
scalar tree_4_3_u03_r9_network.node[37].content_store 	p_hit[37] 	0.2653303889927
scalar tree_4_3_u03_r9_network.node[37].content_store 	hits[37] 	3124
scalar tree_4_3_u03_r9_network.node[37].content_store 	misses[37] 	8650
scalar tree_4_3_u03_r9_network.node[37].content_store 	decision_yes[37] 	241
scalar tree_4_3_u03_r9_network.node[37].content_store 	decision_no[37] 	8409
scalar tree_4_3_u03_r9_network.node[37].content_store 	decision_ratio[37] 	0.027861271676301
scalar tree_4_3_u03_r9_network.node[38].core_layer 	interests[38] 	11790
scalar tree_4_3_u03_r9_network.node[38].core_layer 	data[38] 	8621
scalar tree_4_3_u03_r9_network.node[38].content_store 	p_hit[38] 	0.26861747243427
scalar tree_4_3_u03_r9_network.node[38].content_store 	hits[38] 	3167
scalar tree_4_3_u03_r9_network.node[38].content_store 	misses[38] 	8623
scalar tree_4_3_u03_r9_network.node[38].content_store 	decision_yes[38] 	236
scalar tree_4_3_u03_r9_network.node[38].content_store 	decision_no[38] 	8385
scalar tree_4_3_u03_r9_network.node[38].content_store 	decision_ratio[38] 	0.027375014499478
scalar tree_4_3_u03_r9_network.node[39].core_layer 	interests[39] 	12030
scalar tree_4_3_u03_r9_network.node[39].core_layer 	data[39] 	8842
scalar tree_4_3_u03_r9_network.node[39].content_store 	p_hit[39] 	0.26500415627598
scalar tree_4_3_u03_r9_network.node[39].content_store 	hits[39] 	3188
scalar tree_4_3_u03_r9_network.node[39].content_store 	misses[39] 	8842
scalar tree_4_3_u03_r9_network.node[39].content_store 	decision_yes[39] 	239
scalar tree_4_3_u03_r9_network.node[39].content_store 	decision_no[39] 	8603
scalar tree_4_3_u03_r9_network.node[39].content_store 	decision_ratio[39] 	0.027030083691473
scalar tree_4_3_u03_r9_network.client[13] 	hdistance[13] 	2.831045585494
scalar tree_4_3_u03_r9_network.client[13] 	downloads[13] 	11802
scalar tree_4_3_u03_r9_network.client[13] 	avg_time[13] 	0.004282617052
scalar tree_4_3_u03_r9_network.client[14] 	hdistance[14] 	2.8089663760897
scalar tree_4_3_u03_r9_network.client[14] 	downloads[14] 	12045
scalar tree_4_3_u03_r9_network.client[14] 	avg_time[14] 	0.004249395089
scalar tree_4_3_u03_r9_network.client[15] 	hdistance[15] 	2.8984239623731
scalar tree_4_3_u03_r9_network.client[15] 	downloads[15] 	12119
scalar tree_4_3_u03_r9_network.client[15] 	avg_time[15] 	0.004380194698
scalar tree_4_3_u03_r9_network.client[16] 	hdistance[16] 	2.8010527181512
scalar tree_4_3_u03_r9_network.client[16] 	downloads[16] 	12159
scalar tree_4_3_u03_r9_network.client[16] 	avg_time[16] 	0.004235707129
scalar tree_4_3_u03_r9_network.client[17] 	hdistance[17] 	2.8186580194562
scalar tree_4_3_u03_r9_network.client[17] 	downloads[17] 	12027
scalar tree_4_3_u03_r9_network.client[17] 	avg_time[17] 	0.004265399849
scalar tree_4_3_u03_r9_network.client[18] 	hdistance[18] 	2.8413969616909
scalar tree_4_3_u03_r9_network.client[18] 	downloads[18] 	12112
scalar tree_4_3_u03_r9_network.client[18] 	avg_time[18] 	0.004293163467
scalar tree_4_3_u03_r9_network.client[19] 	hdistance[19] 	2.8559486616567
scalar tree_4_3_u03_r9_network.client[19] 	downloads[19] 	11843
scalar tree_4_3_u03_r9_network.client[19] 	avg_time[19] 	0.00431804064
scalar tree_4_3_u03_r9_network.client[20] 	hdistance[20] 	2.8452950558214
scalar tree_4_3_u03_r9_network.client[20] 	downloads[20] 	11913
scalar tree_4_3_u03_r9_network.client[20] 	avg_time[20] 	0.004304538268
scalar tree_4_3_u03_r9_network.client[21] 	hdistance[21] 	2.8258562069823
scalar tree_4_3_u03_r9_network.client[21] 	downloads[21] 	12059
scalar tree_4_3_u03_r9_network.client[21] 	avg_time[21] 	0.004272656423
scalar tree_4_3_u03_r9_network.client[22] 	hdistance[22] 	2.8329411764706
scalar tree_4_3_u03_r9_network.client[22] 	downloads[22] 	11900
scalar tree_4_3_u03_r9_network.client[22] 	avg_time[22] 	0.004288492935
scalar tree_4_3_u03_r9_network.client[23] 	hdistance[23] 	2.8252599543495
scalar tree_4_3_u03_r9_network.client[23] 	downloads[23] 	11829
scalar tree_4_3_u03_r9_network.client[23] 	avg_time[23] 	0.004276098126
scalar tree_4_3_u03_r9_network.client[24] 	hdistance[24] 	2.823864118896
scalar tree_4_3_u03_r9_network.client[24] 	downloads[24] 	11775
scalar tree_4_3_u03_r9_network.client[24] 	avg_time[24] 	0.004268962119
scalar tree_4_3_u03_r9_network.client[25] 	hdistance[25] 	2.8643968546093
scalar tree_4_3_u03_r9_network.client[25] 	downloads[25] 	11954
scalar tree_4_3_u03_r9_network.client[25] 	avg_time[25] 	0.004334809495
scalar tree_4_3_u03_r9_network.client[26] 	hdistance[26] 	2.8367977293597
scalar tree_4_3_u03_r9_network.client[26] 	downloads[26] 	11979
scalar tree_4_3_u03_r9_network.client[26] 	avg_time[26] 	0.004289169761
scalar tree_4_3_u03_r9_network.client[27] 	hdistance[27] 	2.8445492922771
scalar tree_4_3_u03_r9_network.client[27] 	downloads[27] 	12081
scalar tree_4_3_u03_r9_network.client[27] 	avg_time[27] 	0.004304110867
scalar tree_4_3_u03_r9_network.client[28] 	hdistance[28] 	2.7975883575883
scalar tree_4_3_u03_r9_network.client[28] 	downloads[28] 	12025
scalar tree_4_3_u03_r9_network.client[28] 	avg_time[28] 	0.00423118761
scalar tree_4_3_u03_r9_network.client[29] 	hdistance[29] 	2.8568694349671
scalar tree_4_3_u03_r9_network.client[29] 	downloads[29] 	12017
scalar tree_4_3_u03_r9_network.client[29] 	avg_time[29] 	0.004319544317
scalar tree_4_3_u03_r9_network.client[30] 	hdistance[30] 	2.8248126000168
scalar tree_4_3_u03_r9_network.client[30] 	downloads[30] 	11873
scalar tree_4_3_u03_r9_network.client[30] 	avg_time[30] 	0.004272592686
scalar tree_4_3_u03_r9_network.client[31] 	hdistance[31] 	2.8403624382208
scalar tree_4_3_u03_r9_network.client[31] 	downloads[31] 	12140
scalar tree_4_3_u03_r9_network.client[31] 	avg_time[31] 	0.004292418714
scalar tree_4_3_u03_r9_network.client[32] 	hdistance[32] 	2.8454974732831
scalar tree_4_3_u03_r9_network.client[32] 	downloads[32] 	12071
scalar tree_4_3_u03_r9_network.client[32] 	avg_time[32] 	0.004300002075
scalar tree_4_3_u03_r9_network.client[33] 	hdistance[33] 	2.8523575305292
scalar tree_4_3_u03_r9_network.client[33] 	downloads[33] 	11792
scalar tree_4_3_u03_r9_network.client[33] 	avg_time[33] 	0.004307832902
scalar tree_4_3_u03_r9_network.client[34] 	hdistance[34] 	2.8501724573063
scalar tree_4_3_u03_r9_network.client[34] 	downloads[34] 	11887
scalar tree_4_3_u03_r9_network.client[34] 	avg_time[34] 	0.004311564884
scalar tree_4_3_u03_r9_network.client[35] 	hdistance[35] 	2.7945723407831
scalar tree_4_3_u03_r9_network.client[35] 	downloads[35] 	11902
scalar tree_4_3_u03_r9_network.client[35] 	avg_time[35] 	0.004230546511
scalar tree_4_3_u03_r9_network.client[36] 	hdistance[36] 	2.8295186805789
scalar tree_4_3_u03_r9_network.client[36] 	downloads[36] 	11884
scalar tree_4_3_u03_r9_network.client[36] 	avg_time[36] 	0.004281215485
scalar tree_4_3_u03_r9_network.client[37] 	hdistance[37] 	2.8538304739256
scalar tree_4_3_u03_r9_network.client[37] 	downloads[37] 	11774
scalar tree_4_3_u03_r9_network.client[37] 	avg_time[37] 	0.004308720834
scalar tree_4_3_u03_r9_network.client[38] 	hdistance[38] 	2.8406006107906
scalar tree_4_3_u03_r9_network.client[38] 	downloads[38] 	11788
scalar tree_4_3_u03_r9_network.client[38] 	avg_time[38] 	0.004288994851
scalar tree_4_3_u03_r9_network.client[39] 	hdistance[39] 	2.8500415627598
scalar tree_4_3_u03_r9_network.client[39] 	downloads[39] 	12030
scalar tree_4_3_u03_r9_network.client[39] 	avg_time[39] 	0.004306748391
