version 2
run General-79-20160820-08:04:51-856
attr a 0.9
attr cd lcd
attr configname General
attr cr lru
attr datetime 20160820-08:04:51
attr experiment General
attr fsize 1
attr inifile hw5115/scenario_A/SPR-LCD.ini
attr iterationvars "$name=tree_4_3, $un=03, $rep=20, $cd=lcd, $cr=lru, $fsize=1, $a=0.9, $sl=spr, $ttl=1000, $variance=0.05"
attr iterationvars2 "$name=tree_4_3, $un=03, $rep=20, $cd=lcd, $cr=lru, $fsize=1, $a=0.9, $sl=spr, $ttl=1000, $variance=0.05, $repetition=0"
attr measurement "$name=tree_4_3, $un=03, $rep=20, $cd=lcd, $cr=lru, $fsize=1, $a=0.9, $sl=spr, $ttl=1000, $variance=0.05"
attr name tree_4_3
attr network networks.${name}_u${un}_r${rep}_network
attr processid 856
attr rep 20
attr repetition 0
attr replication #0
attr resultdir results
attr runnumber 79
attr seedset 20
attr sl spr
attr ttl 1000
attr un 03
attr variance 0.05

scalar . 	a 	0.9
scalar . 	fsize 	1
scalar . 	rep 	20
scalar . 	ttl 	1000
scalar . 	un 	03
scalar . 	variance 	0.05
scalar tree_4_3_u03_r20_network.content_distribution 	repo-0 	0
scalar tree_4_3_u03_r20_network.content_distribution 	client-0 	13
scalar tree_4_3_u03_r20_network.content_distribution 	client-1 	14
scalar tree_4_3_u03_r20_network.content_distribution 	client-2 	15
scalar tree_4_3_u03_r20_network.content_distribution 	client-3 	16
scalar tree_4_3_u03_r20_network.content_distribution 	client-4 	17
scalar tree_4_3_u03_r20_network.content_distribution 	client-5 	18
scalar tree_4_3_u03_r20_network.content_distribution 	client-6 	19
scalar tree_4_3_u03_r20_network.content_distribution 	client-7 	20
scalar tree_4_3_u03_r20_network.content_distribution 	client-8 	21
scalar tree_4_3_u03_r20_network.content_distribution 	client-9 	22
scalar tree_4_3_u03_r20_network.content_distribution 	client-10 	23
scalar tree_4_3_u03_r20_network.content_distribution 	client-11 	24
scalar tree_4_3_u03_r20_network.content_distribution 	client-12 	25
scalar tree_4_3_u03_r20_network.content_distribution 	client-13 	26
scalar tree_4_3_u03_r20_network.content_distribution 	client-14 	27
scalar tree_4_3_u03_r20_network.content_distribution 	client-15 	28
scalar tree_4_3_u03_r20_network.content_distribution 	client-16 	29
scalar tree_4_3_u03_r20_network.content_distribution 	client-17 	30
scalar tree_4_3_u03_r20_network.content_distribution 	client-18 	31
scalar tree_4_3_u03_r20_network.content_distribution 	client-19 	32
scalar tree_4_3_u03_r20_network.content_distribution 	client-20 	33
scalar tree_4_3_u03_r20_network.content_distribution 	client-21 	34
scalar tree_4_3_u03_r20_network.content_distribution 	client-22 	35
scalar tree_4_3_u03_r20_network.content_distribution 	client-23 	36
scalar tree_4_3_u03_r20_network.content_distribution 	client-24 	37
scalar tree_4_3_u03_r20_network.content_distribution 	client-25 	38
scalar tree_4_3_u03_r20_network.content_distribution 	client-26 	39
scalar tree_4_3_u03_r20_network.content_distribution 	repo-0_card 	100000
scalar tree_4_3_u03_r20_network.content_distribution 	repo-0_price 	0
scalar tree_4_3_u03_r20_network.statistics 	stabilization_time 	1083.3
scalar tree_4_3_u03_r20_network.statistics 	p_hit 	0.18800600892779
scalar tree_4_3_u03_r20_network.statistics 	interests 	25482.85
scalar tree_4_3_u03_r20_network.statistics 	data 	17378.775
scalar tree_4_3_u03_r20_network.statistics 	hdistance 	2.8367016171435
scalar tree_4_3_u03_r20_network.statistics 	avg_time 	0.004288883074
scalar tree_4_3_u03_r20_network.statistics 	downloads 	324163
scalar tree_4_3_u03_r20_network.statistics 	total_cost 	0
scalar tree_4_3_u03_r20_network.statistics 	total_replicas 	100000
scalar tree_4_3_u03_r20_network.statistics 	inner_hit 	0.30778651480891
scalar tree_4_3_u03_r20_network.node[0].core_layer 	interests[0] 	226666
scalar tree_4_3_u03_r20_network.node[0].core_layer 	repo_load[0] 	224390
scalar tree_4_3_u03_r20_network.node[0].core_layer 	data[0] 	0
scalar tree_4_3_u03_r20_network.node[0].core_layer 	repo_int[0] 	224390
scalar tree_4_3_u03_r20_network.node[0].content_store 	p_hit[0] 	0.010041206003547
scalar tree_4_3_u03_r20_network.node[0].content_store 	hits[0] 	2276
scalar tree_4_3_u03_r20_network.node[0].content_store 	misses[0] 	224390
scalar tree_4_3_u03_r20_network.node[0].content_store 	decision_yes[0] 	224390
scalar tree_4_3_u03_r20_network.node[0].content_store 	decision_no[0] 	0
scalar tree_4_3_u03_r20_network.node[0].content_store 	decision_ratio[0] 	1
scalar tree_4_3_u03_r20_network.node[1].core_layer 	interests[1] 	76911
scalar tree_4_3_u03_r20_network.node[1].core_layer 	data[1] 	75625
scalar tree_4_3_u03_r20_network.node[1].content_store 	p_hit[1] 	0.016694621055506
scalar tree_4_3_u03_r20_network.node[1].content_store 	hits[1] 	1284
scalar tree_4_3_u03_r20_network.node[1].content_store 	misses[1] 	75627
scalar tree_4_3_u03_r20_network.node[1].content_store 	decision_yes[1] 	716
scalar tree_4_3_u03_r20_network.node[1].content_store 	decision_no[1] 	74909
scalar tree_4_3_u03_r20_network.node[1].content_store 	decision_ratio[1] 	0.0094677685950413
scalar tree_4_3_u03_r20_network.node[2].core_layer 	interests[2] 	76996
scalar tree_4_3_u03_r20_network.node[2].core_layer 	data[2] 	75633
scalar tree_4_3_u03_r20_network.node[2].content_store 	p_hit[2] 	0.01767624292171
scalar tree_4_3_u03_r20_network.node[2].content_store 	hits[2] 	1361
scalar tree_4_3_u03_r20_network.node[2].content_store 	misses[2] 	75635
scalar tree_4_3_u03_r20_network.node[2].content_store 	decision_yes[2] 	802
scalar tree_4_3_u03_r20_network.node[2].content_store 	decision_no[2] 	74831
scalar tree_4_3_u03_r20_network.node[2].content_store 	decision_ratio[2] 	0.01060383694948
scalar tree_4_3_u03_r20_network.node[3].core_layer 	interests[3] 	76644
scalar tree_4_3_u03_r20_network.node[3].core_layer 	data[3] 	75408
scalar tree_4_3_u03_r20_network.node[3].content_store 	p_hit[3] 	0.016113459631543
scalar tree_4_3_u03_r20_network.node[3].content_store 	hits[3] 	1235
scalar tree_4_3_u03_r20_network.node[3].content_store 	misses[3] 	75409
scalar tree_4_3_u03_r20_network.node[3].content_store 	decision_yes[3] 	758
scalar tree_4_3_u03_r20_network.node[3].content_store 	decision_no[3] 	74650
scalar tree_4_3_u03_r20_network.node[3].content_store 	decision_ratio[3] 	0.01005198387439
scalar tree_4_3_u03_r20_network.node[4].core_layer 	interests[4] 	35164
scalar tree_4_3_u03_r20_network.node[4].core_layer 	data[4] 	34080
scalar tree_4_3_u03_r20_network.node[4].content_store 	p_hit[4] 	0.030826982140826
scalar tree_4_3_u03_r20_network.node[4].content_store 	hits[4] 	1084
scalar tree_4_3_u03_r20_network.node[4].content_store 	misses[4] 	34080
scalar tree_4_3_u03_r20_network.node[4].content_store 	decision_yes[4] 	496
scalar tree_4_3_u03_r20_network.node[4].content_store 	decision_no[4] 	33584
scalar tree_4_3_u03_r20_network.node[4].content_store 	decision_ratio[4] 	0.014553990610329
scalar tree_4_3_u03_r20_network.node[5].core_layer 	interests[5] 	17675
scalar tree_4_3_u03_r20_network.node[5].core_layer 	data[5] 	17146
scalar tree_4_3_u03_r20_network.node[5].content_store 	p_hit[5] 	0.02992927864215
scalar tree_4_3_u03_r20_network.node[5].content_store 	hits[5] 	529
scalar tree_4_3_u03_r20_network.node[5].content_store 	misses[5] 	17146
scalar tree_4_3_u03_r20_network.node[5].content_store 	decision_yes[5] 	353
scalar tree_4_3_u03_r20_network.node[5].content_store 	decision_no[5] 	16793
scalar tree_4_3_u03_r20_network.node[5].content_store 	decision_ratio[5] 	0.02058789221976
scalar tree_4_3_u03_r20_network.node[6].core_layer 	interests[6] 	26464
scalar tree_4_3_u03_r20_network.node[6].core_layer 	data[6] 	25686
scalar tree_4_3_u03_r20_network.node[6].content_store 	p_hit[6] 	0.029360640870617
scalar tree_4_3_u03_r20_network.node[6].content_store 	hits[6] 	777
scalar tree_4_3_u03_r20_network.node[6].content_store 	misses[6] 	25687
scalar tree_4_3_u03_r20_network.node[6].content_store 	decision_yes[6] 	435
scalar tree_4_3_u03_r20_network.node[6].content_store 	decision_no[6] 	25251
scalar tree_4_3_u03_r20_network.node[6].content_store 	decision_ratio[6] 	0.016935295491708
scalar tree_4_3_u03_r20_network.node[7].core_layer 	interests[7] 	26725
scalar tree_4_3_u03_r20_network.node[7].core_layer 	data[7] 	25913
scalar tree_4_3_u03_r20_network.node[7].content_store 	p_hit[7] 	0.030383536014967
scalar tree_4_3_u03_r20_network.node[7].content_store 	hits[7] 	812
scalar tree_4_3_u03_r20_network.node[7].content_store 	misses[7] 	25913
scalar tree_4_3_u03_r20_network.node[7].content_store 	decision_yes[7] 	466
scalar tree_4_3_u03_r20_network.node[7].content_store 	decision_no[7] 	25447
scalar tree_4_3_u03_r20_network.node[7].content_store 	decision_ratio[7] 	0.017983251649751
scalar tree_4_3_u03_r20_network.node[8].core_layer 	interests[8] 	35006
scalar tree_4_3_u03_r20_network.node[8].core_layer 	data[8] 	33875
scalar tree_4_3_u03_r20_network.node[8].content_store 	p_hit[8] 	0.032308747071931
scalar tree_4_3_u03_r20_network.node[8].content_store 	hits[8] 	1131
scalar tree_4_3_u03_r20_network.node[8].content_store 	misses[8] 	33875
scalar tree_4_3_u03_r20_network.node[8].content_store 	decision_yes[8] 	525
scalar tree_4_3_u03_r20_network.node[8].content_store 	decision_no[8] 	33350
scalar tree_4_3_u03_r20_network.node[8].content_store 	decision_ratio[8] 	0.01549815498155
scalar tree_4_3_u03_r20_network.node[9].core_layer 	interests[9] 	17728
scalar tree_4_3_u03_r20_network.node[9].core_layer 	data[9] 	17208
scalar tree_4_3_u03_r20_network.node[9].content_store 	p_hit[9] 	0.029332129963899
scalar tree_4_3_u03_r20_network.node[9].content_store 	hits[9] 	520
scalar tree_4_3_u03_r20_network.node[9].content_store 	misses[9] 	17208
scalar tree_4_3_u03_r20_network.node[9].content_store 	decision_yes[9] 	370
scalar tree_4_3_u03_r20_network.node[9].content_store 	decision_no[9] 	16838
scalar tree_4_3_u03_r20_network.node[9].content_store 	decision_ratio[9] 	0.021501627150163
scalar tree_4_3_u03_r20_network.node[10].core_layer 	interests[10] 	44192
scalar tree_4_3_u03_r20_network.node[10].core_layer 	data[10] 	42771
scalar tree_4_3_u03_r20_network.node[10].content_store 	p_hit[10] 	0.032155141202028
scalar tree_4_3_u03_r20_network.node[10].content_store 	hits[10] 	1421
scalar tree_4_3_u03_r20_network.node[10].content_store 	misses[10] 	42771
scalar tree_4_3_u03_r20_network.node[10].content_store 	decision_yes[10] 	540
scalar tree_4_3_u03_r20_network.node[10].content_store 	decision_no[10] 	42231
scalar tree_4_3_u03_r20_network.node[10].content_store 	decision_ratio[10] 	0.012625377007786
scalar tree_4_3_u03_r20_network.node[11].core_layer 	interests[11] 	17507
scalar tree_4_3_u03_r20_network.node[11].core_layer 	data[11] 	16961
scalar tree_4_3_u03_r20_network.node[11].content_store 	p_hit[11] 	0.031130404980865
scalar tree_4_3_u03_r20_network.node[11].content_store 	hits[11] 	545
scalar tree_4_3_u03_r20_network.node[11].content_store 	misses[11] 	16962
scalar tree_4_3_u03_r20_network.node[11].content_store 	decision_yes[11] 	353
scalar tree_4_3_u03_r20_network.node[11].content_store 	decision_no[11] 	16608
scalar tree_4_3_u03_r20_network.node[11].content_store 	decision_ratio[11] 	0.020812452095985
scalar tree_4_3_u03_r20_network.node[12].core_layer 	interests[12] 	17471
scalar tree_4_3_u03_r20_network.node[12].core_layer 	data[12] 	16912
scalar tree_4_3_u03_r20_network.node[12].content_store 	p_hit[12] 	0.031995878885009
scalar tree_4_3_u03_r20_network.node[12].content_store 	hits[12] 	559
scalar tree_4_3_u03_r20_network.node[12].content_store 	misses[12] 	16912
scalar tree_4_3_u03_r20_network.node[12].content_store 	decision_yes[12] 	342
scalar tree_4_3_u03_r20_network.node[12].content_store 	decision_no[12] 	16570
scalar tree_4_3_u03_r20_network.node[12].content_store 	decision_ratio[12] 	0.020222327341533
scalar tree_4_3_u03_r20_network.node[13].core_layer 	interests[13] 	12083
scalar tree_4_3_u03_r20_network.node[13].core_layer 	data[13] 	8886
scalar tree_4_3_u03_r20_network.node[13].content_store 	p_hit[13] 	0.26458660928577
scalar tree_4_3_u03_r20_network.node[13].content_store 	hits[13] 	3197
scalar tree_4_3_u03_r20_network.node[13].content_store 	misses[13] 	8886
scalar tree_4_3_u03_r20_network.node[13].content_store 	decision_yes[13] 	273
scalar tree_4_3_u03_r20_network.node[13].content_store 	decision_no[13] 	8613
scalar tree_4_3_u03_r20_network.node[13].content_store 	decision_ratio[13] 	0.030722484807562
scalar tree_4_3_u03_r20_network.node[14].core_layer 	interests[14] 	11933
scalar tree_4_3_u03_r20_network.node[14].core_layer 	data[14] 	8714
scalar tree_4_3_u03_r20_network.node[14].content_store 	p_hit[14] 	0.26975613843962
scalar tree_4_3_u03_r20_network.node[14].content_store 	hits[14] 	3219
scalar tree_4_3_u03_r20_network.node[14].content_store 	misses[14] 	8714
scalar tree_4_3_u03_r20_network.node[14].content_store 	decision_yes[14] 	264
scalar tree_4_3_u03_r20_network.node[14].content_store 	decision_no[14] 	8450
scalar tree_4_3_u03_r20_network.node[14].content_store 	decision_ratio[14] 	0.030296075281157
scalar tree_4_3_u03_r20_network.node[15].core_layer 	interests[15] 	12162
scalar tree_4_3_u03_r20_network.node[15].core_layer 	data[15] 	8918
scalar tree_4_3_u03_r20_network.node[15].content_store 	p_hit[15] 	0.26656799868443
scalar tree_4_3_u03_r20_network.node[15].content_store 	hits[15] 	3242
scalar tree_4_3_u03_r20_network.node[15].content_store 	misses[15] 	8920
scalar tree_4_3_u03_r20_network.node[15].content_store 	decision_yes[15] 	265
scalar tree_4_3_u03_r20_network.node[15].content_store 	decision_no[15] 	8653
scalar tree_4_3_u03_r20_network.node[15].content_store 	decision_ratio[15] 	0.029715182776407
scalar tree_4_3_u03_r20_network.node[16].core_layer 	interests[16] 	11853
scalar tree_4_3_u03_r20_network.node[16].core_layer 	data[16] 	8646
scalar tree_4_3_u03_r20_network.node[16].content_store 	p_hit[16] 	0.27056441407239
scalar tree_4_3_u03_r20_network.node[16].content_store 	hits[16] 	3207
scalar tree_4_3_u03_r20_network.node[16].content_store 	misses[16] 	8646
scalar tree_4_3_u03_r20_network.node[16].content_store 	decision_yes[16] 	282
scalar tree_4_3_u03_r20_network.node[16].content_store 	decision_no[16] 	8364
scalar tree_4_3_u03_r20_network.node[16].content_store 	decision_ratio[16] 	0.032616238723109
scalar tree_4_3_u03_r20_network.node[17].core_layer 	interests[17] 	12123
scalar tree_4_3_u03_r20_network.node[17].core_layer 	data[17] 	8805
scalar tree_4_3_u03_r20_network.node[17].content_store 	p_hit[17] 	0.27369463004207
scalar tree_4_3_u03_r20_network.node[17].content_store 	hits[17] 	3318
scalar tree_4_3_u03_r20_network.node[17].content_store 	misses[17] 	8805
scalar tree_4_3_u03_r20_network.node[17].content_store 	decision_yes[17] 	271
scalar tree_4_3_u03_r20_network.node[17].content_store 	decision_no[17] 	8534
scalar tree_4_3_u03_r20_network.node[17].content_store 	decision_ratio[17] 	0.030777967064168
scalar tree_4_3_u03_r20_network.node[18].core_layer 	interests[18] 	12056
scalar tree_4_3_u03_r20_network.node[18].core_layer 	data[18] 	8870
scalar tree_4_3_u03_r20_network.node[18].content_store 	p_hit[18] 	0.2643497013935
scalar tree_4_3_u03_r20_network.node[18].content_store 	hits[18] 	3187
scalar tree_4_3_u03_r20_network.node[18].content_store 	misses[18] 	8869
scalar tree_4_3_u03_r20_network.node[18].content_store 	decision_yes[18] 	258
scalar tree_4_3_u03_r20_network.node[18].content_store 	decision_no[18] 	8612
scalar tree_4_3_u03_r20_network.node[18].content_store 	decision_ratio[18] 	0.029086809470124
scalar tree_4_3_u03_r20_network.node[19].core_layer 	interests[19] 	11866
scalar tree_4_3_u03_r20_network.node[19].core_layer 	data[19] 	8762
scalar tree_4_3_u03_r20_network.node[19].content_store 	p_hit[19] 	0.26158772964773
scalar tree_4_3_u03_r20_network.node[19].content_store 	hits[19] 	3104
scalar tree_4_3_u03_r20_network.node[19].content_store 	misses[19] 	8762
scalar tree_4_3_u03_r20_network.node[19].content_store 	decision_yes[19] 	262
scalar tree_4_3_u03_r20_network.node[19].content_store 	decision_no[19] 	8500
scalar tree_4_3_u03_r20_network.node[19].content_store 	decision_ratio[19] 	0.029901848892947
scalar tree_4_3_u03_r20_network.node[20].core_layer 	interests[20] 	11906
scalar tree_4_3_u03_r20_network.node[20].core_layer 	data[20] 	8700
scalar tree_4_3_u03_r20_network.node[20].content_store 	p_hit[20] 	0.26927599529649
scalar tree_4_3_u03_r20_network.node[20].content_store 	hits[20] 	3206
scalar tree_4_3_u03_r20_network.node[20].content_store 	misses[20] 	8700
scalar tree_4_3_u03_r20_network.node[20].content_store 	decision_yes[20] 	267
scalar tree_4_3_u03_r20_network.node[20].content_store 	decision_no[20] 	8433
scalar tree_4_3_u03_r20_network.node[20].content_store 	decision_ratio[20] 	0.030689655172414
scalar tree_4_3_u03_r20_network.node[21].core_layer 	interests[21] 	12264
scalar tree_4_3_u03_r20_network.node[21].core_layer 	data[21] 	9003
scalar tree_4_3_u03_r20_network.node[21].content_store 	p_hit[21] 	0.26598173515982
scalar tree_4_3_u03_r20_network.node[21].content_store 	hits[21] 	3262
scalar tree_4_3_u03_r20_network.node[21].content_store 	misses[21] 	9002
scalar tree_4_3_u03_r20_network.node[21].content_store 	decision_yes[21] 	248
scalar tree_4_3_u03_r20_network.node[21].content_store 	decision_no[21] 	8755
scalar tree_4_3_u03_r20_network.node[21].content_store 	decision_ratio[21] 	0.027546373431079
scalar tree_4_3_u03_r20_network.node[22].core_layer 	interests[22] 	12091
scalar tree_4_3_u03_r20_network.node[22].core_layer 	data[22] 	8824
scalar tree_4_3_u03_r20_network.node[22].content_store 	p_hit[22] 	0.27020097593251
scalar tree_4_3_u03_r20_network.node[22].content_store 	hits[22] 	3267
scalar tree_4_3_u03_r20_network.node[22].content_store 	misses[22] 	8824
scalar tree_4_3_u03_r20_network.node[22].content_store 	decision_yes[22] 	291
scalar tree_4_3_u03_r20_network.node[22].content_store 	decision_no[22] 	8533
scalar tree_4_3_u03_r20_network.node[22].content_store 	decision_ratio[22] 	0.032978241160471
scalar tree_4_3_u03_r20_network.node[23].core_layer 	interests[23] 	12046
scalar tree_4_3_u03_r20_network.node[23].core_layer 	data[23] 	8814
scalar tree_4_3_u03_r20_network.node[23].content_store 	p_hit[23] 	0.26830483147933
scalar tree_4_3_u03_r20_network.node[23].content_store 	hits[23] 	3232
scalar tree_4_3_u03_r20_network.node[23].content_store 	misses[23] 	8814
scalar tree_4_3_u03_r20_network.node[23].content_store 	decision_yes[23] 	261
scalar tree_4_3_u03_r20_network.node[23].content_store 	decision_no[23] 	8553
scalar tree_4_3_u03_r20_network.node[23].content_store 	decision_ratio[23] 	0.029611980939415
scalar tree_4_3_u03_r20_network.node[24].core_layer 	interests[24] 	12199
scalar tree_4_3_u03_r20_network.node[24].core_layer 	data[24] 	9087
scalar tree_4_3_u03_r20_network.node[24].content_store 	p_hit[24] 	0.25510287728502
scalar tree_4_3_u03_r20_network.node[24].content_store 	hits[24] 	3112
scalar tree_4_3_u03_r20_network.node[24].content_store 	misses[24] 	9087
scalar tree_4_3_u03_r20_network.node[24].content_store 	decision_yes[24] 	260
scalar tree_4_3_u03_r20_network.node[24].content_store 	decision_no[24] 	8827
scalar tree_4_3_u03_r20_network.node[24].content_store 	decision_ratio[24] 	0.028612303290415
scalar tree_4_3_u03_r20_network.node[25].core_layer 	interests[25] 	11803
scalar tree_4_3_u03_r20_network.node[25].core_layer 	data[25] 	8744
scalar tree_4_3_u03_r20_network.node[25].content_store 	p_hit[25] 	0.25917139710243
scalar tree_4_3_u03_r20_network.node[25].content_store 	hits[25] 	3059
scalar tree_4_3_u03_r20_network.node[25].content_store 	misses[25] 	8744
scalar tree_4_3_u03_r20_network.node[25].content_store 	decision_yes[25] 	293
scalar tree_4_3_u03_r20_network.node[25].content_store 	decision_no[25] 	8451
scalar tree_4_3_u03_r20_network.node[25].content_store 	decision_ratio[25] 	0.033508691674291
scalar tree_4_3_u03_r20_network.node[26].core_layer 	interests[26] 	11963
scalar tree_4_3_u03_r20_network.node[26].core_layer 	data[26] 	8817
scalar tree_4_3_u03_r20_network.node[26].content_store 	p_hit[26] 	0.26289392292903
scalar tree_4_3_u03_r20_network.node[26].content_store 	hits[26] 	3145
scalar tree_4_3_u03_r20_network.node[26].content_store 	misses[26] 	8818
scalar tree_4_3_u03_r20_network.node[26].content_store 	decision_yes[26] 	288
scalar tree_4_3_u03_r20_network.node[26].content_store 	decision_no[26] 	8529
scalar tree_4_3_u03_r20_network.node[26].content_store 	decision_ratio[26] 	0.0326641714869
scalar tree_4_3_u03_r20_network.node[27].core_layer 	interests[27] 	12068
scalar tree_4_3_u03_r20_network.node[27].core_layer 	data[27] 	8867
scalar tree_4_3_u03_r20_network.node[27].content_store 	p_hit[27] 	0.26524693404044
scalar tree_4_3_u03_r20_network.node[27].content_store 	hits[27] 	3201
scalar tree_4_3_u03_r20_network.node[27].content_store 	misses[27] 	8867
scalar tree_4_3_u03_r20_network.node[27].content_store 	decision_yes[27] 	281
scalar tree_4_3_u03_r20_network.node[27].content_store 	decision_no[27] 	8586
scalar tree_4_3_u03_r20_network.node[27].content_store 	decision_ratio[27] 	0.031690537949701
scalar tree_4_3_u03_r20_network.node[28].core_layer 	interests[28] 	12224
scalar tree_4_3_u03_r20_network.node[28].core_layer 	data[28] 	8920
scalar tree_4_3_u03_r20_network.node[28].content_store 	p_hit[28] 	0.27020615183246
scalar tree_4_3_u03_r20_network.node[28].content_store 	hits[28] 	3303
scalar tree_4_3_u03_r20_network.node[28].content_store 	misses[28] 	8921
scalar tree_4_3_u03_r20_network.node[28].content_store 	decision_yes[28] 	271
scalar tree_4_3_u03_r20_network.node[28].content_store 	decision_no[28] 	8649
scalar tree_4_3_u03_r20_network.node[28].content_store 	decision_ratio[28] 	0.030381165919283
scalar tree_4_3_u03_r20_network.node[29].core_layer 	interests[29] 	11719
scalar tree_4_3_u03_r20_network.node[29].core_layer 	data[29] 	8578
scalar tree_4_3_u03_r20_network.node[29].content_store 	p_hit[29] 	0.26802628210598
scalar tree_4_3_u03_r20_network.node[29].content_store 	hits[29] 	3141
scalar tree_4_3_u03_r20_network.node[29].content_store 	misses[29] 	8578
scalar tree_4_3_u03_r20_network.node[29].content_store 	decision_yes[29] 	269
scalar tree_4_3_u03_r20_network.node[29].content_store 	decision_no[29] 	8309
scalar tree_4_3_u03_r20_network.node[29].content_store 	decision_ratio[29] 	0.031359291210072
scalar tree_4_3_u03_r20_network.node[30].core_layer 	interests[30] 	11973
scalar tree_4_3_u03_r20_network.node[30].core_layer 	data[30] 	8808
scalar tree_4_3_u03_r20_network.node[30].content_store 	p_hit[30] 	0.26434477574543
scalar tree_4_3_u03_r20_network.node[30].content_store 	hits[30] 	3165
scalar tree_4_3_u03_r20_network.node[30].content_store 	misses[30] 	8808
scalar tree_4_3_u03_r20_network.node[30].content_store 	decision_yes[30] 	249
scalar tree_4_3_u03_r20_network.node[30].content_store 	decision_no[30] 	8559
scalar tree_4_3_u03_r20_network.node[30].content_store 	decision_ratio[30] 	0.028269754768392
scalar tree_4_3_u03_r20_network.node[31].core_layer 	interests[31] 	12021
scalar tree_4_3_u03_r20_network.node[31].core_layer 	data[31] 	8793
scalar tree_4_3_u03_r20_network.node[31].content_store 	p_hit[31] 	0.26853007237335
scalar tree_4_3_u03_r20_network.node[31].content_store 	hits[31] 	3228
scalar tree_4_3_u03_r20_network.node[31].content_store 	misses[31] 	8793
scalar tree_4_3_u03_r20_network.node[31].content_store 	decision_yes[31] 	281
scalar tree_4_3_u03_r20_network.node[31].content_store 	decision_no[31] 	8512
scalar tree_4_3_u03_r20_network.node[31].content_store 	decision_ratio[31] 	0.031957238712612
scalar tree_4_3_u03_r20_network.node[32].core_layer 	interests[32] 	12059
scalar tree_4_3_u03_r20_network.node[32].core_layer 	data[32] 	8883
scalar tree_4_3_u03_r20_network.node[32].content_store 	p_hit[32] 	0.26337175553528
scalar tree_4_3_u03_r20_network.node[32].content_store 	hits[32] 	3176
scalar tree_4_3_u03_r20_network.node[32].content_store 	misses[32] 	8883
scalar tree_4_3_u03_r20_network.node[32].content_store 	decision_yes[32] 	301
scalar tree_4_3_u03_r20_network.node[32].content_store 	decision_no[32] 	8582
scalar tree_4_3_u03_r20_network.node[32].content_store 	decision_ratio[32] 	0.033884948778566
scalar tree_4_3_u03_r20_network.node[33].core_layer 	interests[33] 	12075
scalar tree_4_3_u03_r20_network.node[33].core_layer 	data[33] 	8887
scalar tree_4_3_u03_r20_network.node[33].content_store 	p_hit[33] 	0.264016563147
scalar tree_4_3_u03_r20_network.node[33].content_store 	hits[33] 	3188
scalar tree_4_3_u03_r20_network.node[33].content_store 	misses[33] 	8887
scalar tree_4_3_u03_r20_network.node[33].content_store 	decision_yes[33] 	297
scalar tree_4_3_u03_r20_network.node[33].content_store 	decision_no[33] 	8590
scalar tree_4_3_u03_r20_network.node[33].content_store 	decision_ratio[33] 	0.033419601665354
scalar tree_4_3_u03_r20_network.node[34].core_layer 	interests[34] 	12091
scalar tree_4_3_u03_r20_network.node[34].core_layer 	data[34] 	8909
scalar tree_4_3_u03_r20_network.node[34].content_store 	p_hit[34] 	0.26317095360185
scalar tree_4_3_u03_r20_network.node[34].content_store 	hits[34] 	3182
scalar tree_4_3_u03_r20_network.node[34].content_store 	misses[34] 	8909
scalar tree_4_3_u03_r20_network.node[34].content_store 	decision_yes[34] 	273
scalar tree_4_3_u03_r20_network.node[34].content_store 	decision_no[34] 	8636
scalar tree_4_3_u03_r20_network.node[34].content_store 	decision_ratio[34] 	0.030643169828264
scalar tree_4_3_u03_r20_network.node[35].core_layer 	interests[35] 	11981
scalar tree_4_3_u03_r20_network.node[35].core_layer 	data[35] 	8880
scalar tree_4_3_u03_r20_network.node[35].content_store 	p_hit[35] 	0.25882647525248
scalar tree_4_3_u03_r20_network.node[35].content_store 	hits[35] 	3101
scalar tree_4_3_u03_r20_network.node[35].content_store 	misses[35] 	8880
scalar tree_4_3_u03_r20_network.node[35].content_store 	decision_yes[35] 	266
scalar tree_4_3_u03_r20_network.node[35].content_store 	decision_no[35] 	8614
scalar tree_4_3_u03_r20_network.node[35].content_store 	decision_ratio[35] 	0.029954954954955
scalar tree_4_3_u03_r20_network.node[36].core_layer 	interests[36] 	11759
scalar tree_4_3_u03_r20_network.node[36].core_layer 	data[36] 	8627
scalar tree_4_3_u03_r20_network.node[36].content_store 	p_hit[36] 	0.26634917935199
scalar tree_4_3_u03_r20_network.node[36].content_store 	hits[36] 	3132
scalar tree_4_3_u03_r20_network.node[36].content_store 	misses[36] 	8627
scalar tree_4_3_u03_r20_network.node[36].content_store 	decision_yes[36] 	279
scalar tree_4_3_u03_r20_network.node[36].content_store 	decision_no[36] 	8348
scalar tree_4_3_u03_r20_network.node[36].content_store 	decision_ratio[36] 	0.032340326880723
scalar tree_4_3_u03_r20_network.node[37].core_layer 	interests[37] 	11891
scalar tree_4_3_u03_r20_network.node[37].core_layer 	data[37] 	8720
scalar tree_4_3_u03_r20_network.node[37].content_store 	p_hit[37] 	0.26667227314776
scalar tree_4_3_u03_r20_network.node[37].content_store 	hits[37] 	3171
scalar tree_4_3_u03_r20_network.node[37].content_store 	misses[37] 	8720
scalar tree_4_3_u03_r20_network.node[37].content_store 	decision_yes[37] 	269
scalar tree_4_3_u03_r20_network.node[37].content_store 	decision_no[37] 	8451
scalar tree_4_3_u03_r20_network.node[37].content_store 	decision_ratio[37] 	0.030848623853211
scalar tree_4_3_u03_r20_network.node[38].core_layer 	interests[38] 	12155
scalar tree_4_3_u03_r20_network.node[38].core_layer 	data[38] 	8898
scalar tree_4_3_u03_r20_network.node[38].content_store 	p_hit[38] 	0.26795557383793
scalar tree_4_3_u03_r20_network.node[38].content_store 	hits[38] 	3257
scalar tree_4_3_u03_r20_network.node[38].content_store 	misses[38] 	8898
scalar tree_4_3_u03_r20_network.node[38].content_store 	decision_yes[38] 	300
scalar tree_4_3_u03_r20_network.node[38].content_store 	decision_no[38] 	8598
scalar tree_4_3_u03_r20_network.node[38].content_store 	decision_ratio[38] 	0.033715441672286
scalar tree_4_3_u03_r20_network.node[39].core_layer 	interests[39] 	11801
scalar tree_4_3_u03_r20_network.node[39].core_layer 	data[39] 	8573
scalar tree_4_3_u03_r20_network.node[39].content_store 	p_hit[39] 	0.273536141005
scalar tree_4_3_u03_r20_network.node[39].content_store 	hits[39] 	3228
scalar tree_4_3_u03_r20_network.node[39].content_store 	misses[39] 	8573
scalar tree_4_3_u03_r20_network.node[39].content_store 	decision_yes[39] 	259
scalar tree_4_3_u03_r20_network.node[39].content_store 	decision_no[39] 	8314
scalar tree_4_3_u03_r20_network.node[39].content_store 	decision_ratio[39] 	0.030211127959874
scalar tree_4_3_u03_r20_network.client[13] 	hdistance[13] 	2.8439129355293
scalar tree_4_3_u03_r20_network.client[13] 	downloads[13] 	12083
scalar tree_4_3_u03_r20_network.client[13] 	avg_time[13] 	0.004299462735
scalar tree_4_3_u03_r20_network.client[14] 	hdistance[14] 	2.8276208832649
scalar tree_4_3_u03_r20_network.client[14] 	downloads[14] 	11933
scalar tree_4_3_u03_r20_network.client[14] 	avg_time[14] 	0.004271672371
scalar tree_4_3_u03_r20_network.client[15] 	hdistance[15] 	2.8435855263158
scalar tree_4_3_u03_r20_network.client[15] 	downloads[15] 	12160
scalar tree_4_3_u03_r20_network.client[15] 	avg_time[15] 	0.004294822435
scalar tree_4_3_u03_r20_network.client[16] 	hdistance[16] 	2.8194549902978
scalar tree_4_3_u03_r20_network.client[16] 	downloads[16] 	11853
scalar tree_4_3_u03_r20_network.client[16] 	avg_time[16] 	0.00426085926
scalar tree_4_3_u03_r20_network.client[17] 	hdistance[17] 	2.8035139816877
scalar tree_4_3_u03_r20_network.client[17] 	downloads[17] 	12123
scalar tree_4_3_u03_r20_network.client[17] 	avg_time[17] 	0.004240201511
scalar tree_4_3_u03_r20_network.client[18] 	hdistance[18] 	2.8424981338642
scalar tree_4_3_u03_r20_network.client[18] 	downloads[18] 	12057
scalar tree_4_3_u03_r20_network.client[18] 	avg_time[18] 	0.004298246949
scalar tree_4_3_u03_r20_network.client[19] 	hdistance[19] 	2.8538681948424
scalar tree_4_3_u03_r20_network.client[19] 	downloads[19] 	11866
scalar tree_4_3_u03_r20_network.client[19] 	avg_time[19] 	0.004317042636
scalar tree_4_3_u03_r20_network.client[20] 	hdistance[20] 	2.825718125315
scalar tree_4_3_u03_r20_network.client[20] 	downloads[20] 	11906
scalar tree_4_3_u03_r20_network.client[20] 	avg_time[20] 	0.004270952825
scalar tree_4_3_u03_r20_network.client[21] 	hdistance[21] 	2.8450061149613
scalar tree_4_3_u03_r20_network.client[21] 	downloads[21] 	12265
scalar tree_4_3_u03_r20_network.client[21] 	avg_time[21] 	0.004299452349
scalar tree_4_3_u03_r20_network.client[22] 	hdistance[22] 	2.8106856339426
scalar tree_4_3_u03_r20_network.client[22] 	downloads[22] 	12091
scalar tree_4_3_u03_r20_network.client[22] 	avg_time[22] 	0.004254897318
scalar tree_4_3_u03_r20_network.client[23] 	hdistance[23] 	2.8310642536942
scalar tree_4_3_u03_r20_network.client[23] 	downloads[23] 	12046
scalar tree_4_3_u03_r20_network.client[23] 	avg_time[23] 	0.004279757898
scalar tree_4_3_u03_r20_network.client[24] 	hdistance[24] 	2.8817935896385
scalar tree_4_3_u03_r20_network.client[24] 	downloads[24] 	12199
scalar tree_4_3_u03_r20_network.client[24] 	avg_time[24] 	0.004358550921
scalar tree_4_3_u03_r20_network.client[25] 	hdistance[25] 	2.8582563754978
scalar tree_4_3_u03_r20_network.client[25] 	downloads[25] 	11803
scalar tree_4_3_u03_r20_network.client[25] 	avg_time[25] 	0.004321610222
scalar tree_4_3_u03_r20_network.client[26] 	hdistance[26] 	2.8478515298445
scalar tree_4_3_u03_r20_network.client[26] 	downloads[26] 	11962
scalar tree_4_3_u03_r20_network.client[26] 	avg_time[26] 	0.004306062607
scalar tree_4_3_u03_r20_network.client[27] 	hdistance[27] 	2.838747099768
scalar tree_4_3_u03_r20_network.client[27] 	downloads[27] 	12068
scalar tree_4_3_u03_r20_network.client[27] 	avg_time[27] 	0.004292340346
scalar tree_4_3_u03_r20_network.client[28] 	hdistance[28] 	2.816575308844
scalar tree_4_3_u03_r20_network.client[28] 	downloads[28] 	12223
scalar tree_4_3_u03_r20_network.client[28] 	avg_time[28] 	0.004260787496
scalar tree_4_3_u03_r20_network.client[29] 	hdistance[29] 	2.8312995989419
scalar tree_4_3_u03_r20_network.client[29] 	downloads[29] 	11719
scalar tree_4_3_u03_r20_network.client[29] 	avg_time[29] 	0.00427868979
scalar tree_4_3_u03_r20_network.client[30] 	hdistance[30] 	2.8408920070158
scalar tree_4_3_u03_r20_network.client[30] 	downloads[30] 	11973
scalar tree_4_3_u03_r20_network.client[30] 	avg_time[30] 	0.004298501971
scalar tree_4_3_u03_r20_network.client[31] 	hdistance[31] 	2.833624490475
scalar tree_4_3_u03_r20_network.client[31] 	downloads[31] 	12021
scalar tree_4_3_u03_r20_network.client[31] 	avg_time[31] 	0.004280287049
scalar tree_4_3_u03_r20_network.client[32] 	hdistance[32] 	2.8455925035243
scalar tree_4_3_u03_r20_network.client[32] 	downloads[32] 	12059
scalar tree_4_3_u03_r20_network.client[32] 	avg_time[32] 	0.00430118282
scalar tree_4_3_u03_r20_network.client[33] 	hdistance[33] 	2.8407453416149
scalar tree_4_3_u03_r20_network.client[33] 	downloads[33] 	12075
scalar tree_4_3_u03_r20_network.client[33] 	avg_time[33] 	0.004295483555
scalar tree_4_3_u03_r20_network.client[34] 	hdistance[34] 	2.8560913075842
scalar tree_4_3_u03_r20_network.client[34] 	downloads[34] 	12091
scalar tree_4_3_u03_r20_network.client[34] 	avg_time[34] 	0.004312957007
scalar tree_4_3_u03_r20_network.client[35] 	hdistance[35] 	2.8611134295969
scalar tree_4_3_u03_r20_network.client[35] 	downloads[35] 	11981
scalar tree_4_3_u03_r20_network.client[35] 	avg_time[35] 	0.00432807153
scalar tree_4_3_u03_r20_network.client[36] 	hdistance[36] 	2.8274513138872
scalar tree_4_3_u03_r20_network.client[36] 	downloads[36] 	11759
scalar tree_4_3_u03_r20_network.client[36] 	avg_time[36] 	0.004277401578
scalar tree_4_3_u03_r20_network.client[37] 	hdistance[37] 	2.841981330418
scalar tree_4_3_u03_r20_network.client[37] 	downloads[37] 	11891
scalar tree_4_3_u03_r20_network.client[37] 	avg_time[37] 	0.00429315992
scalar tree_4_3_u03_r20_network.client[38] 	hdistance[38] 	2.8185931715343
scalar tree_4_3_u03_r20_network.client[38] 	downloads[38] 	12155
scalar tree_4_3_u03_r20_network.client[38] 	avg_time[38] 	0.004266224842
scalar tree_4_3_u03_r20_network.client[39] 	hdistance[39] 	2.8034064909753
scalar tree_4_3_u03_r20_network.client[39] 	downloads[39] 	11801
scalar tree_4_3_u03_r20_network.client[39] 	avg_time[39] 	0.004241163057
