version 2
run General-43-20160818-21:34:44-32642
attr a 0.9
attr cd lce
attr configname General
attr cr lru
attr datetime 20160818-21:34:44
attr experiment General
attr fsize 1
attr inifile hw5115/scenario_A/Edge.ini
attr iterationvars "$name=tree_4_3, $un=02, $rep=4, $scenario=Edge, $cd=lce, $cr=lru, $fsize=1, $a=0.9, $sl=spr, $ttl=1000, $variance=0.05"
attr iterationvars2 "$name=tree_4_3, $un=02, $rep=4, $scenario=Edge, $cd=lce, $cr=lru, $fsize=1, $a=0.9, $sl=spr, $ttl=1000, $variance=0.05, $repetition=0"
attr measurement "$name=tree_4_3, $un=02, $rep=4, $scenario=Edge, $cd=lce, $cr=lru, $fsize=1, $a=0.9, $sl=spr, $ttl=1000, $variance=0.05"
attr name tree_4_3
attr network networks.${name}_u${un}_r${rep}_network
attr processid 32642
attr rep 4
attr repetition 0
attr replication #0
attr resultdir results
attr runnumber 43
attr scenario Edge
attr seedset 4
attr sl spr
attr ttl 1000
attr un 02
attr variance 0.05

scalar . 	a 	0.9
scalar . 	fsize 	1
scalar . 	rep 	4
scalar . 	ttl 	1000
scalar . 	un 	02
scalar . 	variance 	0.05
scalar tree_4_3_u02_r4_network.content_distribution 	repo-0 	0
scalar tree_4_3_u02_r4_network.content_distribution 	client-0 	13
scalar tree_4_3_u02_r4_network.content_distribution 	client-1 	14
scalar tree_4_3_u02_r4_network.content_distribution 	client-2 	15
scalar tree_4_3_u02_r4_network.content_distribution 	client-3 	16
scalar tree_4_3_u02_r4_network.content_distribution 	client-4 	17
scalar tree_4_3_u02_r4_network.content_distribution 	client-5 	18
scalar tree_4_3_u02_r4_network.content_distribution 	client-6 	19
scalar tree_4_3_u02_r4_network.content_distribution 	client-7 	20
scalar tree_4_3_u02_r4_network.content_distribution 	client-8 	21
scalar tree_4_3_u02_r4_network.content_distribution 	client-9 	22
scalar tree_4_3_u02_r4_network.content_distribution 	client-10 	23
scalar tree_4_3_u02_r4_network.content_distribution 	client-11 	24
scalar tree_4_3_u02_r4_network.content_distribution 	client-12 	25
scalar tree_4_3_u02_r4_network.content_distribution 	client-13 	26
scalar tree_4_3_u02_r4_network.content_distribution 	client-14 	27
scalar tree_4_3_u02_r4_network.content_distribution 	client-15 	28
scalar tree_4_3_u02_r4_network.content_distribution 	client-16 	29
scalar tree_4_3_u02_r4_network.content_distribution 	client-17 	30
scalar tree_4_3_u02_r4_network.content_distribution 	client-18 	31
scalar tree_4_3_u02_r4_network.content_distribution 	client-19 	32
scalar tree_4_3_u02_r4_network.content_distribution 	client-20 	33
scalar tree_4_3_u02_r4_network.content_distribution 	client-21 	34
scalar tree_4_3_u02_r4_network.content_distribution 	client-22 	35
scalar tree_4_3_u02_r4_network.content_distribution 	client-23 	36
scalar tree_4_3_u02_r4_network.content_distribution 	client-24 	37
scalar tree_4_3_u02_r4_network.content_distribution 	client-25 	38
scalar tree_4_3_u02_r4_network.content_distribution 	client-26 	39
scalar tree_4_3_u02_r4_network.content_distribution 	repo-0_card 	100000
scalar tree_4_3_u02_r4_network.content_distribution 	repo-0_price 	0
scalar tree_4_3_u02_r4_network.statistics 	stabilization_time 	423
scalar tree_4_3_u02_r4_network.statistics 	p_hit 	0.10517635056108
scalar tree_4_3_u02_r4_network.statistics 	interests 	28603.425
scalar tree_4_3_u02_r4_network.statistics 	data 	20505.25
scalar tree_4_3_u02_r4_network.statistics 	hdistance 	3.3766863838201
scalar tree_4_3_u02_r4_network.statistics 	avg_time 	0.005064694505
scalar tree_4_3_u02_r4_network.statistics 	downloads 	323898
scalar tree_4_3_u02_r4_network.statistics 	total_cost 	0
scalar tree_4_3_u02_r4_network.statistics 	total_replicas 	100000
scalar tree_4_3_u02_r4_network.statistics 	inner_hit 	0.15596267960901
scalar tree_4_3_u02_r4_network.node[0].core_layer 	interests[0] 	273382
scalar tree_4_3_u02_r4_network.node[0].core_layer 	repo_load[0] 	273382
scalar tree_4_3_u02_r4_network.node[0].core_layer 	data[0] 	0
scalar tree_4_3_u02_r4_network.node[0].core_layer 	repo_int[0] 	273382
scalar tree_4_3_u02_r4_network.node[0].content_store 	p_hit[0] 	0
scalar tree_4_3_u02_r4_network.node[0].content_store 	hits[0] 	0
scalar tree_4_3_u02_r4_network.node[0].content_store 	misses[0] 	273382
scalar tree_4_3_u02_r4_network.node[0].content_store 	decision_yes[0] 	0
scalar tree_4_3_u02_r4_network.node[0].content_store 	decision_no[0] 	273382
scalar tree_4_3_u02_r4_network.node[0].content_store 	decision_ratio[0] 	0
scalar tree_4_3_u02_r4_network.node[1].core_layer 	interests[1] 	91355
scalar tree_4_3_u02_r4_network.node[1].core_layer 	data[1] 	91348
scalar tree_4_3_u02_r4_network.node[1].content_store 	p_hit[1] 	0
scalar tree_4_3_u02_r4_network.node[1].content_store 	hits[1] 	0
scalar tree_4_3_u02_r4_network.node[1].content_store 	misses[1] 	91355
scalar tree_4_3_u02_r4_network.node[1].content_store 	decision_yes[1] 	0
scalar tree_4_3_u02_r4_network.node[1].content_store 	decision_no[1] 	91348
scalar tree_4_3_u02_r4_network.node[1].content_store 	decision_ratio[1] 	0
scalar tree_4_3_u02_r4_network.node[2].core_layer 	interests[2] 	90786
scalar tree_4_3_u02_r4_network.node[2].core_layer 	data[2] 	90777
scalar tree_4_3_u02_r4_network.node[2].content_store 	p_hit[2] 	0
scalar tree_4_3_u02_r4_network.node[2].content_store 	hits[2] 	0
scalar tree_4_3_u02_r4_network.node[2].content_store 	misses[2] 	90786
scalar tree_4_3_u02_r4_network.node[2].content_store 	decision_yes[2] 	0
scalar tree_4_3_u02_r4_network.node[2].content_store 	decision_no[2] 	90777
scalar tree_4_3_u02_r4_network.node[2].content_store 	decision_ratio[2] 	0
scalar tree_4_3_u02_r4_network.node[3].core_layer 	interests[3] 	91263
scalar tree_4_3_u02_r4_network.node[3].core_layer 	data[3] 	91255
scalar tree_4_3_u02_r4_network.node[3].content_store 	p_hit[3] 	0
scalar tree_4_3_u02_r4_network.node[3].content_store 	hits[3] 	0
scalar tree_4_3_u02_r4_network.node[3].content_store 	misses[3] 	91263
scalar tree_4_3_u02_r4_network.node[3].content_store 	decision_yes[3] 	0
scalar tree_4_3_u02_r4_network.node[3].content_store 	decision_no[3] 	91255
scalar tree_4_3_u02_r4_network.node[3].content_store 	decision_ratio[3] 	0
scalar tree_4_3_u02_r4_network.node[4].core_layer 	interests[4] 	40763
scalar tree_4_3_u02_r4_network.node[4].core_layer 	data[4] 	40758
scalar tree_4_3_u02_r4_network.node[4].content_store 	p_hit[4] 	0
scalar tree_4_3_u02_r4_network.node[4].content_store 	hits[4] 	0
scalar tree_4_3_u02_r4_network.node[4].content_store 	misses[4] 	40763
scalar tree_4_3_u02_r4_network.node[4].content_store 	decision_yes[4] 	0
scalar tree_4_3_u02_r4_network.node[4].content_store 	decision_no[4] 	40758
scalar tree_4_3_u02_r4_network.node[4].content_store 	decision_ratio[4] 	0
scalar tree_4_3_u02_r4_network.node[5].core_layer 	interests[5] 	20131
scalar tree_4_3_u02_r4_network.node[5].core_layer 	data[5] 	20130
scalar tree_4_3_u02_r4_network.node[5].content_store 	p_hit[5] 	0
scalar tree_4_3_u02_r4_network.node[5].content_store 	hits[5] 	0
scalar tree_4_3_u02_r4_network.node[5].content_store 	misses[5] 	20131
scalar tree_4_3_u02_r4_network.node[5].content_store 	decision_yes[5] 	0
scalar tree_4_3_u02_r4_network.node[5].content_store 	decision_no[5] 	20130
scalar tree_4_3_u02_r4_network.node[5].content_store 	decision_ratio[5] 	0
scalar tree_4_3_u02_r4_network.node[6].core_layer 	interests[6] 	30473
scalar tree_4_3_u02_r4_network.node[6].core_layer 	data[6] 	30466
scalar tree_4_3_u02_r4_network.node[6].content_store 	p_hit[6] 	0
scalar tree_4_3_u02_r4_network.node[6].content_store 	hits[6] 	0
scalar tree_4_3_u02_r4_network.node[6].content_store 	misses[6] 	30473
scalar tree_4_3_u02_r4_network.node[6].content_store 	decision_yes[6] 	0
scalar tree_4_3_u02_r4_network.node[6].content_store 	decision_no[6] 	30466
scalar tree_4_3_u02_r4_network.node[6].content_store 	decision_ratio[6] 	0
scalar tree_4_3_u02_r4_network.node[7].core_layer 	interests[7] 	30274
scalar tree_4_3_u02_r4_network.node[7].core_layer 	data[7] 	30267
scalar tree_4_3_u02_r4_network.node[7].content_store 	p_hit[7] 	0
scalar tree_4_3_u02_r4_network.node[7].content_store 	hits[7] 	0
scalar tree_4_3_u02_r4_network.node[7].content_store 	misses[7] 	30274
scalar tree_4_3_u02_r4_network.node[7].content_store 	decision_yes[7] 	0
scalar tree_4_3_u02_r4_network.node[7].content_store 	decision_no[7] 	30267
scalar tree_4_3_u02_r4_network.node[7].content_store 	decision_ratio[7] 	0
scalar tree_4_3_u02_r4_network.node[8].core_layer 	interests[8] 	40243
scalar tree_4_3_u02_r4_network.node[8].core_layer 	data[8] 	40241
scalar tree_4_3_u02_r4_network.node[8].content_store 	p_hit[8] 	0
scalar tree_4_3_u02_r4_network.node[8].content_store 	hits[8] 	0
scalar tree_4_3_u02_r4_network.node[8].content_store 	misses[8] 	40243
scalar tree_4_3_u02_r4_network.node[8].content_store 	decision_yes[8] 	0
scalar tree_4_3_u02_r4_network.node[8].content_store 	decision_no[8] 	40241
scalar tree_4_3_u02_r4_network.node[8].content_store 	decision_ratio[8] 	0
scalar tree_4_3_u02_r4_network.node[9].core_layer 	interests[9] 	20279
scalar tree_4_3_u02_r4_network.node[9].core_layer 	data[9] 	20278
scalar tree_4_3_u02_r4_network.node[9].content_store 	p_hit[9] 	0
scalar tree_4_3_u02_r4_network.node[9].content_store 	hits[9] 	0
scalar tree_4_3_u02_r4_network.node[9].content_store 	misses[9] 	20279
scalar tree_4_3_u02_r4_network.node[9].content_store 	decision_yes[9] 	0
scalar tree_4_3_u02_r4_network.node[9].content_store 	decision_no[9] 	20278
scalar tree_4_3_u02_r4_network.node[9].content_store 	decision_ratio[9] 	0
scalar tree_4_3_u02_r4_network.node[10].core_layer 	interests[10] 	30339
scalar tree_4_3_u02_r4_network.node[10].core_layer 	data[10] 	30338
scalar tree_4_3_u02_r4_network.node[10].content_store 	p_hit[10] 	0
scalar tree_4_3_u02_r4_network.node[10].content_store 	hits[10] 	0
scalar tree_4_3_u02_r4_network.node[10].content_store 	misses[10] 	30339
scalar tree_4_3_u02_r4_network.node[10].content_store 	decision_yes[10] 	0
scalar tree_4_3_u02_r4_network.node[10].content_store 	decision_no[10] 	30338
scalar tree_4_3_u02_r4_network.node[10].content_store 	decision_ratio[10] 	0
scalar tree_4_3_u02_r4_network.node[11].core_layer 	interests[11] 	30479
scalar tree_4_3_u02_r4_network.node[11].core_layer 	data[11] 	30478
scalar tree_4_3_u02_r4_network.node[11].content_store 	p_hit[11] 	0
scalar tree_4_3_u02_r4_network.node[11].content_store 	hits[11] 	0
scalar tree_4_3_u02_r4_network.node[11].content_store 	misses[11] 	30479
scalar tree_4_3_u02_r4_network.node[11].content_store 	decision_yes[11] 	0
scalar tree_4_3_u02_r4_network.node[11].content_store 	decision_no[11] 	30478
scalar tree_4_3_u02_r4_network.node[11].content_store 	decision_ratio[11] 	0
scalar tree_4_3_u02_r4_network.node[12].core_layer 	interests[12] 	30448
scalar tree_4_3_u02_r4_network.node[12].core_layer 	data[12] 	30447
scalar tree_4_3_u02_r4_network.node[12].content_store 	p_hit[12] 	0
scalar tree_4_3_u02_r4_network.node[12].content_store 	hits[12] 	0
scalar tree_4_3_u02_r4_network.node[12].content_store 	misses[12] 	30448
scalar tree_4_3_u02_r4_network.node[12].content_store 	decision_yes[12] 	0
scalar tree_4_3_u02_r4_network.node[12].content_store 	decision_no[12] 	30447
scalar tree_4_3_u02_r4_network.node[12].content_store 	decision_ratio[12] 	0
scalar tree_4_3_u02_r4_network.node[13].core_layer 	interests[13] 	11993
scalar tree_4_3_u02_r4_network.node[13].core_layer 	data[13] 	10123
scalar tree_4_3_u02_r4_network.node[13].content_store 	p_hit[13] 	0.15584090719586
scalar tree_4_3_u02_r4_network.node[13].content_store 	hits[13] 	1869
scalar tree_4_3_u02_r4_network.node[13].content_store 	misses[13] 	10124
scalar tree_4_3_u02_r4_network.node[13].content_store 	decision_yes[13] 	10123
scalar tree_4_3_u02_r4_network.node[13].content_store 	decision_no[13] 	0
scalar tree_4_3_u02_r4_network.node[13].content_store 	decision_ratio[13] 	1
scalar tree_4_3_u02_r4_network.node[14].core_layer 	interests[14] 	11929
scalar tree_4_3_u02_r4_network.node[14].core_layer 	data[14] 	10064
scalar tree_4_3_u02_r4_network.node[14].content_store 	p_hit[14] 	0.15642551764607
scalar tree_4_3_u02_r4_network.node[14].content_store 	hits[14] 	1866
scalar tree_4_3_u02_r4_network.node[14].content_store 	misses[14] 	10063
scalar tree_4_3_u02_r4_network.node[14].content_store 	decision_yes[14] 	10064
scalar tree_4_3_u02_r4_network.node[14].content_store 	decision_no[14] 	0
scalar tree_4_3_u02_r4_network.node[14].content_store 	decision_ratio[14] 	1
scalar tree_4_3_u02_r4_network.node[15].core_layer 	interests[15] 	12152
scalar tree_4_3_u02_r4_network.node[15].core_layer 	data[15] 	10261
scalar tree_4_3_u02_r4_network.node[15].content_store 	p_hit[15] 	0.15561224489796
scalar tree_4_3_u02_r4_network.node[15].content_store 	hits[15] 	1891
scalar tree_4_3_u02_r4_network.node[15].content_store 	misses[15] 	10261
scalar tree_4_3_u02_r4_network.node[15].content_store 	decision_yes[15] 	10261
scalar tree_4_3_u02_r4_network.node[15].content_store 	decision_no[15] 	0
scalar tree_4_3_u02_r4_network.node[15].content_store 	decision_ratio[15] 	1
scalar tree_4_3_u02_r4_network.node[16].core_layer 	interests[16] 	12126
scalar tree_4_3_u02_r4_network.node[16].core_layer 	data[16] 	10315
scalar tree_4_3_u02_r4_network.node[16].content_store 	p_hit[16] 	0.1493485073396
scalar tree_4_3_u02_r4_network.node[16].content_store 	hits[16] 	1811
scalar tree_4_3_u02_r4_network.node[16].content_store 	misses[16] 	10315
scalar tree_4_3_u02_r4_network.node[16].content_store 	decision_yes[16] 	10315
scalar tree_4_3_u02_r4_network.node[16].content_store 	decision_no[16] 	0
scalar tree_4_3_u02_r4_network.node[16].content_store 	decision_ratio[16] 	1
scalar tree_4_3_u02_r4_network.node[17].core_layer 	interests[17] 	11967
scalar tree_4_3_u02_r4_network.node[17].core_layer 	data[17] 	10070
scalar tree_4_3_u02_r4_network.node[17].content_store 	p_hit[17] 	0.15843569816997
scalar tree_4_3_u02_r4_network.node[17].content_store 	hits[17] 	1896
scalar tree_4_3_u02_r4_network.node[17].content_store 	misses[17] 	10071
scalar tree_4_3_u02_r4_network.node[17].content_store 	decision_yes[17] 	10070
scalar tree_4_3_u02_r4_network.node[17].content_store 	decision_no[17] 	0
scalar tree_4_3_u02_r4_network.node[17].content_store 	decision_ratio[17] 	1
scalar tree_4_3_u02_r4_network.node[18].core_layer 	interests[18] 	11834
scalar tree_4_3_u02_r4_network.node[18].core_layer 	data[18] 	10060
scalar tree_4_3_u02_r4_network.node[18].content_store 	p_hit[18] 	0.14990704749028
scalar tree_4_3_u02_r4_network.node[18].content_store 	hits[18] 	1774
scalar tree_4_3_u02_r4_network.node[18].content_store 	misses[18] 	10060
scalar tree_4_3_u02_r4_network.node[18].content_store 	decision_yes[18] 	10060
scalar tree_4_3_u02_r4_network.node[18].content_store 	decision_no[18] 	0
scalar tree_4_3_u02_r4_network.node[18].content_store 	decision_ratio[18] 	1
scalar tree_4_3_u02_r4_network.node[19].core_layer 	interests[19] 	12078
scalar tree_4_3_u02_r4_network.node[19].core_layer 	data[19] 	10192
scalar tree_4_3_u02_r4_network.node[19].content_store 	p_hit[19] 	0.15598609041232
scalar tree_4_3_u02_r4_network.node[19].content_store 	hits[19] 	1884
scalar tree_4_3_u02_r4_network.node[19].content_store 	misses[19] 	10194
scalar tree_4_3_u02_r4_network.node[19].content_store 	decision_yes[19] 	10192
scalar tree_4_3_u02_r4_network.node[19].content_store 	decision_no[19] 	0
scalar tree_4_3_u02_r4_network.node[19].content_store 	decision_ratio[19] 	1
scalar tree_4_3_u02_r4_network.node[20].core_layer 	interests[20] 	12023
scalar tree_4_3_u02_r4_network.node[20].core_layer 	data[20] 	10095
scalar tree_4_3_u02_r4_network.node[20].content_store 	p_hit[20] 	0.16035931131997
scalar tree_4_3_u02_r4_network.node[20].content_store 	hits[20] 	1928
scalar tree_4_3_u02_r4_network.node[20].content_store 	misses[20] 	10095
scalar tree_4_3_u02_r4_network.node[20].content_store 	decision_yes[20] 	10095
scalar tree_4_3_u02_r4_network.node[20].content_store 	decision_no[20] 	0
scalar tree_4_3_u02_r4_network.node[20].content_store 	decision_ratio[20] 	1
scalar tree_4_3_u02_r4_network.node[21].core_layer 	interests[21] 	12053
scalar tree_4_3_u02_r4_network.node[21].core_layer 	data[21] 	10186
scalar tree_4_3_u02_r4_network.node[21].content_store 	p_hit[21] 	0.15465029453248
scalar tree_4_3_u02_r4_network.node[21].content_store 	hits[21] 	1864
scalar tree_4_3_u02_r4_network.node[21].content_store 	misses[21] 	10189
scalar tree_4_3_u02_r4_network.node[21].content_store 	decision_yes[21] 	10186
scalar tree_4_3_u02_r4_network.node[21].content_store 	decision_no[21] 	0
scalar tree_4_3_u02_r4_network.node[21].content_store 	decision_ratio[21] 	1
scalar tree_4_3_u02_r4_network.node[22].core_layer 	interests[22] 	11899
scalar tree_4_3_u02_r4_network.node[22].core_layer 	data[22] 	10022
scalar tree_4_3_u02_r4_network.node[22].content_store 	p_hit[22] 	0.15757626691319
scalar tree_4_3_u02_r4_network.node[22].content_store 	hits[22] 	1875
scalar tree_4_3_u02_r4_network.node[22].content_store 	misses[22] 	10024
scalar tree_4_3_u02_r4_network.node[22].content_store 	decision_yes[22] 	10022
scalar tree_4_3_u02_r4_network.node[22].content_store 	decision_no[22] 	0
scalar tree_4_3_u02_r4_network.node[22].content_store 	decision_ratio[22] 	1
scalar tree_4_3_u02_r4_network.node[23].core_layer 	interests[23] 	11962
scalar tree_4_3_u02_r4_network.node[23].core_layer 	data[23] 	10114
scalar tree_4_3_u02_r4_network.node[23].content_store 	p_hit[23] 	0.15448921585019
scalar tree_4_3_u02_r4_network.node[23].content_store 	hits[23] 	1848
scalar tree_4_3_u02_r4_network.node[23].content_store 	misses[23] 	10114
scalar tree_4_3_u02_r4_network.node[23].content_store 	decision_yes[23] 	10114
scalar tree_4_3_u02_r4_network.node[23].content_store 	decision_no[23] 	0
scalar tree_4_3_u02_r4_network.node[23].content_store 	decision_ratio[23] 	1
scalar tree_4_3_u02_r4_network.node[24].core_layer 	interests[24] 	11960
scalar tree_4_3_u02_r4_network.node[24].core_layer 	data[24] 	10136
scalar tree_4_3_u02_r4_network.node[24].content_store 	p_hit[24] 	0.15250836120401
scalar tree_4_3_u02_r4_network.node[24].content_store 	hits[24] 	1824
scalar tree_4_3_u02_r4_network.node[24].content_store 	misses[24] 	10136
scalar tree_4_3_u02_r4_network.node[24].content_store 	decision_yes[24] 	10136
scalar tree_4_3_u02_r4_network.node[24].content_store 	decision_no[24] 	0
scalar tree_4_3_u02_r4_network.node[24].content_store 	decision_ratio[24] 	1
scalar tree_4_3_u02_r4_network.node[25].core_layer 	interests[25] 	12044
scalar tree_4_3_u02_r4_network.node[25].core_layer 	data[25] 	10123
scalar tree_4_3_u02_r4_network.node[25].content_store 	p_hit[25] 	0.15949850547991
scalar tree_4_3_u02_r4_network.node[25].content_store 	hits[25] 	1921
scalar tree_4_3_u02_r4_network.node[25].content_store 	misses[25] 	10123
scalar tree_4_3_u02_r4_network.node[25].content_store 	decision_yes[25] 	10123
scalar tree_4_3_u02_r4_network.node[25].content_store 	decision_no[25] 	0
scalar tree_4_3_u02_r4_network.node[25].content_store 	decision_ratio[25] 	1
scalar tree_4_3_u02_r4_network.node[26].core_layer 	interests[26] 	12037
scalar tree_4_3_u02_r4_network.node[26].core_layer 	data[26] 	10216
scalar tree_4_3_u02_r4_network.node[26].content_store 	p_hit[26] 	0.1512835424109
scalar tree_4_3_u02_r4_network.node[26].content_store 	hits[26] 	1821
scalar tree_4_3_u02_r4_network.node[26].content_store 	misses[26] 	10216
scalar tree_4_3_u02_r4_network.node[26].content_store 	decision_yes[26] 	10216
scalar tree_4_3_u02_r4_network.node[26].content_store 	decision_no[26] 	0
scalar tree_4_3_u02_r4_network.node[26].content_store 	decision_ratio[26] 	1
scalar tree_4_3_u02_r4_network.node[27].core_layer 	interests[27] 	11809
scalar tree_4_3_u02_r4_network.node[27].core_layer 	data[27] 	10000
scalar tree_4_3_u02_r4_network.node[27].content_store 	p_hit[27] 	0.15310356507748
scalar tree_4_3_u02_r4_network.node[27].content_store 	hits[27] 	1808
scalar tree_4_3_u02_r4_network.node[27].content_store 	misses[27] 	10001
scalar tree_4_3_u02_r4_network.node[27].content_store 	decision_yes[27] 	10000
scalar tree_4_3_u02_r4_network.node[27].content_store 	decision_no[27] 	0
scalar tree_4_3_u02_r4_network.node[27].content_store 	decision_ratio[27] 	1
scalar tree_4_3_u02_r4_network.node[28].core_layer 	interests[28] 	11994
scalar tree_4_3_u02_r4_network.node[28].core_layer 	data[28] 	10119
scalar tree_4_3_u02_r4_network.node[28].content_store 	p_hit[28] 	0.15607803901951
scalar tree_4_3_u02_r4_network.node[28].content_store 	hits[28] 	1872
scalar tree_4_3_u02_r4_network.node[28].content_store 	misses[28] 	10122
scalar tree_4_3_u02_r4_network.node[28].content_store 	decision_yes[28] 	10119
scalar tree_4_3_u02_r4_network.node[28].content_store 	decision_no[28] 	0
scalar tree_4_3_u02_r4_network.node[28].content_store 	decision_ratio[28] 	1
scalar tree_4_3_u02_r4_network.node[29].core_layer 	interests[29] 	11817
scalar tree_4_3_u02_r4_network.node[29].core_layer 	data[29] 	9905
scalar tree_4_3_u02_r4_network.node[29].content_store 	p_hit[29] 	0.16180079546416
scalar tree_4_3_u02_r4_network.node[29].content_store 	hits[29] 	1912
scalar tree_4_3_u02_r4_network.node[29].content_store 	misses[29] 	9905
scalar tree_4_3_u02_r4_network.node[29].content_store 	decision_yes[29] 	9905
scalar tree_4_3_u02_r4_network.node[29].content_store 	decision_no[29] 	0
scalar tree_4_3_u02_r4_network.node[29].content_store 	decision_ratio[29] 	1
scalar tree_4_3_u02_r4_network.node[30].core_layer 	interests[30] 	12100
scalar tree_4_3_u02_r4_network.node[30].core_layer 	data[30] 	10160
scalar tree_4_3_u02_r4_network.node[30].content_store 	p_hit[30] 	0.1601652892562
scalar tree_4_3_u02_r4_network.node[30].content_store 	hits[30] 	1938
scalar tree_4_3_u02_r4_network.node[30].content_store 	misses[30] 	10162
scalar tree_4_3_u02_r4_network.node[30].content_store 	decision_yes[30] 	10160
scalar tree_4_3_u02_r4_network.node[30].content_store 	decision_no[30] 	0
scalar tree_4_3_u02_r4_network.node[30].content_store 	decision_ratio[30] 	1
scalar tree_4_3_u02_r4_network.node[31].core_layer 	interests[31] 	11790
scalar tree_4_3_u02_r4_network.node[31].core_layer 	data[31] 	9933
scalar tree_4_3_u02_r4_network.node[31].content_store 	p_hit[31] 	0.15733672603902
scalar tree_4_3_u02_r4_network.node[31].content_store 	hits[31] 	1855
scalar tree_4_3_u02_r4_network.node[31].content_store 	misses[31] 	9935
scalar tree_4_3_u02_r4_network.node[31].content_store 	decision_yes[31] 	9933
scalar tree_4_3_u02_r4_network.node[31].content_store 	decision_no[31] 	0
scalar tree_4_3_u02_r4_network.node[31].content_store 	decision_ratio[31] 	1
scalar tree_4_3_u02_r4_network.node[32].core_layer 	interests[32] 	12024
scalar tree_4_3_u02_r4_network.node[32].core_layer 	data[32] 	10159
scalar tree_4_3_u02_r4_network.node[32].content_store 	p_hit[32] 	0.15510645375915
scalar tree_4_3_u02_r4_network.node[32].content_store 	hits[32] 	1865
scalar tree_4_3_u02_r4_network.node[32].content_store 	misses[32] 	10159
scalar tree_4_3_u02_r4_network.node[32].content_store 	decision_yes[32] 	10159
scalar tree_4_3_u02_r4_network.node[32].content_store 	decision_no[32] 	0
scalar tree_4_3_u02_r4_network.node[32].content_store 	decision_ratio[32] 	1
scalar tree_4_3_u02_r4_network.node[33].core_layer 	interests[33] 	12136
scalar tree_4_3_u02_r4_network.node[33].core_layer 	data[33] 	10247
scalar tree_4_3_u02_r4_network.node[33].content_store 	p_hit[33] 	0.15548780487805
scalar tree_4_3_u02_r4_network.node[33].content_store 	hits[33] 	1887
scalar tree_4_3_u02_r4_network.node[33].content_store 	misses[33] 	10249
scalar tree_4_3_u02_r4_network.node[33].content_store 	decision_yes[33] 	10247
scalar tree_4_3_u02_r4_network.node[33].content_store 	decision_no[33] 	0
scalar tree_4_3_u02_r4_network.node[33].content_store 	decision_ratio[33] 	1
scalar tree_4_3_u02_r4_network.node[34].core_layer 	interests[34] 	12000
scalar tree_4_3_u02_r4_network.node[34].core_layer 	data[34] 	10153
scalar tree_4_3_u02_r4_network.node[34].content_store 	p_hit[34] 	0.15391666666667
scalar tree_4_3_u02_r4_network.node[34].content_store 	hits[34] 	1847
scalar tree_4_3_u02_r4_network.node[34].content_store 	misses[34] 	10153
scalar tree_4_3_u02_r4_network.node[34].content_store 	decision_yes[34] 	10153
scalar tree_4_3_u02_r4_network.node[34].content_store 	decision_no[34] 	0
scalar tree_4_3_u02_r4_network.node[34].content_store 	decision_ratio[34] 	1
scalar tree_4_3_u02_r4_network.node[35].core_layer 	interests[35] 	12150
scalar tree_4_3_u02_r4_network.node[35].core_layer 	data[35] 	10292
scalar tree_4_3_u02_r4_network.node[35].content_store 	p_hit[35] 	0.15292181069959
scalar tree_4_3_u02_r4_network.node[35].content_store 	hits[35] 	1858
scalar tree_4_3_u02_r4_network.node[35].content_store 	misses[35] 	10292
scalar tree_4_3_u02_r4_network.node[35].content_store 	decision_yes[35] 	10292
scalar tree_4_3_u02_r4_network.node[35].content_store 	decision_no[35] 	0
scalar tree_4_3_u02_r4_network.node[35].content_store 	decision_ratio[35] 	1
scalar tree_4_3_u02_r4_network.node[36].core_layer 	interests[36] 	11928
scalar tree_4_3_u02_r4_network.node[36].core_layer 	data[36] 	10034
scalar tree_4_3_u02_r4_network.node[36].content_store 	p_hit[36] 	0.15861837692824
scalar tree_4_3_u02_r4_network.node[36].content_store 	hits[36] 	1892
scalar tree_4_3_u02_r4_network.node[36].content_store 	misses[36] 	10036
scalar tree_4_3_u02_r4_network.node[36].content_store 	decision_yes[36] 	10034
scalar tree_4_3_u02_r4_network.node[36].content_store 	decision_no[36] 	0
scalar tree_4_3_u02_r4_network.node[36].content_store 	decision_ratio[36] 	1
scalar tree_4_3_u02_r4_network.node[37].core_layer 	interests[37] 	11921
scalar tree_4_3_u02_r4_network.node[37].core_layer 	data[37] 	10058
scalar tree_4_3_u02_r4_network.node[37].content_store 	p_hit[37] 	0.15611106450801
scalar tree_4_3_u02_r4_network.node[37].content_store 	hits[37] 	1861
scalar tree_4_3_u02_r4_network.node[37].content_store 	misses[37] 	10060
scalar tree_4_3_u02_r4_network.node[37].content_store 	decision_yes[37] 	10058
scalar tree_4_3_u02_r4_network.node[37].content_store 	decision_no[37] 	0
scalar tree_4_3_u02_r4_network.node[37].content_store 	decision_ratio[37] 	1
scalar tree_4_3_u02_r4_network.node[38].core_layer 	interests[38] 	12244
scalar tree_4_3_u02_r4_network.node[38].core_layer 	data[38] 	10344
scalar tree_4_3_u02_r4_network.node[38].content_store 	p_hit[38] 	0.15501470107808
scalar tree_4_3_u02_r4_network.node[38].content_store 	hits[38] 	1898
scalar tree_4_3_u02_r4_network.node[38].content_store 	misses[38] 	10346
scalar tree_4_3_u02_r4_network.node[38].content_store 	decision_yes[38] 	10344
scalar tree_4_3_u02_r4_network.node[38].content_store 	decision_no[38] 	0
scalar tree_4_3_u02_r4_network.node[38].content_store 	decision_ratio[38] 	1
scalar tree_4_3_u02_r4_network.node[39].core_layer 	interests[39] 	11952
scalar tree_4_3_u02_r4_network.node[39].core_layer 	data[39] 	10046
scalar tree_4_3_u02_r4_network.node[39].content_store 	p_hit[39] 	0.15947121820616
scalar tree_4_3_u02_r4_network.node[39].content_store 	hits[39] 	1906
scalar tree_4_3_u02_r4_network.node[39].content_store 	misses[39] 	10046
scalar tree_4_3_u02_r4_network.node[39].content_store 	decision_yes[39] 	10046
scalar tree_4_3_u02_r4_network.node[39].content_store 	decision_no[39] 	0
scalar tree_4_3_u02_r4_network.node[39].content_store 	decision_ratio[39] 	1
scalar tree_4_3_u02_r4_network.client[13] 	hdistance[13] 	3.3765843895931
scalar tree_4_3_u02_r4_network.client[13] 	downloads[13] 	11992
scalar tree_4_3_u02_r4_network.client[13] 	avg_time[13] 	0.005064851282
scalar tree_4_3_u02_r4_network.client[14] 	hdistance[14] 	3.3743503772003
scalar tree_4_3_u02_r4_network.client[14] 	downloads[14] 	11930
scalar tree_4_3_u02_r4_network.client[14] 	avg_time[14] 	0.005061522577
scalar tree_4_3_u02_r4_network.client[15] 	hdistance[15] 	3.3775510204082
scalar tree_4_3_u02_r4_network.client[15] 	downloads[15] 	12152
scalar tree_4_3_u02_r4_network.client[15] 	avg_time[15] 	0.005066107797
scalar tree_4_3_u02_r4_network.client[16] 	hdistance[16] 	3.4026059706416
scalar tree_4_3_u02_r4_network.client[16] 	downloads[16] 	12126
scalar tree_4_3_u02_r4_network.client[16] 	avg_time[16] 	0.005103541062
scalar tree_4_3_u02_r4_network.client[17] 	hdistance[17] 	3.3662042453619
scalar tree_4_3_u02_r4_network.client[17] 	downloads[17] 	11966
scalar tree_4_3_u02_r4_network.client[17] 	avg_time[17] 	0.005049303352
scalar tree_4_3_u02_r4_network.client[18] 	hdistance[18] 	3.4003718100389
scalar tree_4_3_u02_r4_network.client[18] 	downloads[18] 	11834
scalar tree_4_3_u02_r4_network.client[18] 	avg_time[18] 	0.005100554784
scalar tree_4_3_u02_r4_network.client[19] 	hdistance[19] 	3.3759523020868
scalar tree_4_3_u02_r4_network.client[19] 	downloads[19] 	12076
scalar tree_4_3_u02_r4_network.client[19] 	avg_time[19] 	0.005063115955
scalar tree_4_3_u02_r4_network.client[20] 	hdistance[20] 	3.3585627547201
scalar tree_4_3_u02_r4_network.client[20] 	downloads[20] 	12023
scalar tree_4_3_u02_r4_network.client[20] 	avg_time[20] 	0.005037253671
scalar tree_4_3_u02_r4_network.client[21] 	hdistance[21] 	3.381244813278
scalar tree_4_3_u02_r4_network.client[21] 	downloads[21] 	12050
scalar tree_4_3_u02_r4_network.client[21] 	avg_time[21] 	0.005071154955
scalar tree_4_3_u02_r4_network.client[22] 	hdistance[22] 	3.3695889720098
scalar tree_4_3_u02_r4_network.client[22] 	downloads[22] 	11897
scalar tree_4_3_u02_r4_network.client[22] 	avg_time[22] 	0.005053557401
scalar tree_4_3_u02_r4_network.client[23] 	hdistance[23] 	3.3820431365992
scalar tree_4_3_u02_r4_network.client[23] 	downloads[23] 	11962
scalar tree_4_3_u02_r4_network.client[23] 	avg_time[23] 	0.005072793058
scalar tree_4_3_u02_r4_network.client[24] 	hdistance[24] 	3.3899665551839
scalar tree_4_3_u02_r4_network.client[24] 	downloads[24] 	11960
scalar tree_4_3_u02_r4_network.client[24] 	avg_time[24] 	0.005084946835
scalar tree_4_3_u02_r4_network.client[25] 	hdistance[25] 	3.3620059780804
scalar tree_4_3_u02_r4_network.client[25] 	downloads[25] 	12044
scalar tree_4_3_u02_r4_network.client[25] 	avg_time[25] 	0.005043005957
scalar tree_4_3_u02_r4_network.client[26] 	hdistance[26] 	3.3948658303564
scalar tree_4_3_u02_r4_network.client[26] 	downloads[26] 	12037
scalar tree_4_3_u02_r4_network.client[26] 	avg_time[26] 	0.005092295762
scalar tree_4_3_u02_r4_network.client[27] 	hdistance[27] 	3.3875338753388
scalar tree_4_3_u02_r4_network.client[27] 	downloads[27] 	11808
scalar tree_4_3_u02_r4_network.client[27] 	avg_time[27] 	0.005080744397
scalar tree_4_3_u02_r4_network.client[28] 	hdistance[28] 	3.3755316487365
scalar tree_4_3_u02_r4_network.client[28] 	downloads[28] 	11991
scalar tree_4_3_u02_r4_network.client[28] 	avg_time[28] 	0.005062339352
scalar tree_4_3_u02_r4_network.client[29] 	hdistance[29] 	3.3527968181434
scalar tree_4_3_u02_r4_network.client[29] 	downloads[29] 	11817
scalar tree_4_3_u02_r4_network.client[29] 	avg_time[29] 	0.005028567023
scalar tree_4_3_u02_r4_network.client[30] 	hdistance[30] 	3.359232931063
scalar tree_4_3_u02_r4_network.client[30] 	downloads[30] 	12098
scalar tree_4_3_u02_r4_network.client[30] 	avg_time[30] 	0.005038667545
scalar tree_4_3_u02_r4_network.client[31] 	hdistance[31] 	3.3705463182898
scalar tree_4_3_u02_r4_network.client[31] 	downloads[31] 	11788
scalar tree_4_3_u02_r4_network.client[31] 	avg_time[31] 	0.005055151171
scalar tree_4_3_u02_r4_network.client[32] 	hdistance[32] 	3.3795741849634
scalar tree_4_3_u02_r4_network.client[32] 	downloads[32] 	12024
scalar tree_4_3_u02_r4_network.client[32] 	avg_time[32] 	0.005069358267
scalar tree_4_3_u02_r4_network.client[33] 	hdistance[33] 	3.3779462666886
scalar tree_4_3_u02_r4_network.client[33] 	downloads[33] 	12134
scalar tree_4_3_u02_r4_network.client[33] 	avg_time[33] 	0.005066485386
scalar tree_4_3_u02_r4_network.client[34] 	hdistance[34] 	3.3843333333333
scalar tree_4_3_u02_r4_network.client[34] 	downloads[34] 	12000
scalar tree_4_3_u02_r4_network.client[34] 	avg_time[34] 	0.005076279947
scalar tree_4_3_u02_r4_network.client[35] 	hdistance[35] 	3.3883127572016
scalar tree_4_3_u02_r4_network.client[35] 	downloads[35] 	12150
scalar tree_4_3_u02_r4_network.client[35] 	avg_time[35] 	0.005082466078
scalar tree_4_3_u02_r4_network.client[36] 	hdistance[36] 	3.3654200905584
scalar tree_4_3_u02_r4_network.client[36] 	downloads[36] 	11926
scalar tree_4_3_u02_r4_network.client[36] 	avg_time[36] 	0.0050476908
scalar tree_4_3_u02_r4_network.client[37] 	hdistance[37] 	3.3754509606511
scalar tree_4_3_u02_r4_network.client[37] 	downloads[37] 	11919
scalar tree_4_3_u02_r4_network.client[37] 	avg_time[37] 	0.005062563841
scalar tree_4_3_u02_r4_network.client[38] 	hdistance[38] 	3.3798398954419
scalar tree_4_3_u02_r4_network.client[38] 	downloads[38] 	12242
scalar tree_4_3_u02_r4_network.client[38] 	avg_time[38] 	0.005069327068
scalar tree_4_3_u02_r4_network.client[39] 	hdistance[39] 	3.3621151271754
scalar tree_4_3_u02_r4_network.client[39] 	downloads[39] 	11952
scalar tree_4_3_u02_r4_network.client[39] 	avg_time[39] 	0.005043106314
