version 2
run General-55-20160818-21:44:27-32642
attr a 0.9
attr cd lce
attr configname General
attr cr lru
attr datetime 20160818-21:44:27
attr experiment General
attr fsize 1
attr inifile hw5115/scenario_A/Edge.ini
attr iterationvars "$name=tree_4_3, $un=02, $rep=16, $scenario=Edge, $cd=lce, $cr=lru, $fsize=1, $a=0.9, $sl=spr, $ttl=1000, $variance=0.05"
attr iterationvars2 "$name=tree_4_3, $un=02, $rep=16, $scenario=Edge, $cd=lce, $cr=lru, $fsize=1, $a=0.9, $sl=spr, $ttl=1000, $variance=0.05, $repetition=0"
attr measurement "$name=tree_4_3, $un=02, $rep=16, $scenario=Edge, $cd=lce, $cr=lru, $fsize=1, $a=0.9, $sl=spr, $ttl=1000, $variance=0.05"
attr name tree_4_3
attr network networks.${name}_u${un}_r${rep}_network
attr processid 32642
attr rep 16
attr repetition 0
attr replication #0
attr resultdir results
attr runnumber 55
attr scenario Edge
attr seedset 16
attr sl spr
attr ttl 1000
attr un 02
attr variance 0.05

scalar . 	a 	0.9
scalar . 	fsize 	1
scalar . 	rep 	16
scalar . 	ttl 	1000
scalar . 	un 	02
scalar . 	variance 	0.05
scalar tree_4_3_u02_r16_network.content_distribution 	repo-0 	0
scalar tree_4_3_u02_r16_network.content_distribution 	client-0 	13
scalar tree_4_3_u02_r16_network.content_distribution 	client-1 	14
scalar tree_4_3_u02_r16_network.content_distribution 	client-2 	15
scalar tree_4_3_u02_r16_network.content_distribution 	client-3 	16
scalar tree_4_3_u02_r16_network.content_distribution 	client-4 	17
scalar tree_4_3_u02_r16_network.content_distribution 	client-5 	18
scalar tree_4_3_u02_r16_network.content_distribution 	client-6 	19
scalar tree_4_3_u02_r16_network.content_distribution 	client-7 	20
scalar tree_4_3_u02_r16_network.content_distribution 	client-8 	21
scalar tree_4_3_u02_r16_network.content_distribution 	client-9 	22
scalar tree_4_3_u02_r16_network.content_distribution 	client-10 	23
scalar tree_4_3_u02_r16_network.content_distribution 	client-11 	24
scalar tree_4_3_u02_r16_network.content_distribution 	client-12 	25
scalar tree_4_3_u02_r16_network.content_distribution 	client-13 	26
scalar tree_4_3_u02_r16_network.content_distribution 	client-14 	27
scalar tree_4_3_u02_r16_network.content_distribution 	client-15 	28
scalar tree_4_3_u02_r16_network.content_distribution 	client-16 	29
scalar tree_4_3_u02_r16_network.content_distribution 	client-17 	30
scalar tree_4_3_u02_r16_network.content_distribution 	client-18 	31
scalar tree_4_3_u02_r16_network.content_distribution 	client-19 	32
scalar tree_4_3_u02_r16_network.content_distribution 	client-20 	33
scalar tree_4_3_u02_r16_network.content_distribution 	client-21 	34
scalar tree_4_3_u02_r16_network.content_distribution 	client-22 	35
scalar tree_4_3_u02_r16_network.content_distribution 	client-23 	36
scalar tree_4_3_u02_r16_network.content_distribution 	client-24 	37
scalar tree_4_3_u02_r16_network.content_distribution 	client-25 	38
scalar tree_4_3_u02_r16_network.content_distribution 	client-26 	39
scalar tree_4_3_u02_r16_network.content_distribution 	repo-0_card 	100000
scalar tree_4_3_u02_r16_network.content_distribution 	repo-0_price 	0
scalar tree_4_3_u02_r16_network.statistics 	stabilization_time 	421.4
scalar tree_4_3_u02_r16_network.statistics 	p_hit 	0.10448890325943
scalar tree_4_3_u02_r16_network.statistics 	interests 	28660.275
scalar tree_4_3_u02_r16_network.statistics 	data 	20552.65
scalar tree_4_3_u02_r16_network.statistics 	hdistance 	3.3807336606034
scalar tree_4_3_u02_r16_network.statistics 	avg_time 	0.005070569171
scalar tree_4_3_u02_r16_network.statistics 	downloads 	324261
scalar tree_4_3_u02_r16_network.statistics 	total_cost 	0
scalar tree_4_3_u02_r16_network.statistics 	total_replicas 	100000
scalar tree_4_3_u02_r16_network.statistics 	inner_hit 	0.15496775745464
scalar tree_4_3_u02_r16_network.node[0].core_layer 	interests[0] 	274011
scalar tree_4_3_u02_r16_network.node[0].core_layer 	repo_load[0] 	274011
scalar tree_4_3_u02_r16_network.node[0].core_layer 	data[0] 	0
scalar tree_4_3_u02_r16_network.node[0].core_layer 	repo_int[0] 	274011
scalar tree_4_3_u02_r16_network.node[0].content_store 	p_hit[0] 	0
scalar tree_4_3_u02_r16_network.node[0].content_store 	hits[0] 	0
scalar tree_4_3_u02_r16_network.node[0].content_store 	misses[0] 	274011
scalar tree_4_3_u02_r16_network.node[0].content_store 	decision_yes[0] 	0
scalar tree_4_3_u02_r16_network.node[0].content_store 	decision_no[0] 	274011
scalar tree_4_3_u02_r16_network.node[0].content_store 	decision_ratio[0] 	0
scalar tree_4_3_u02_r16_network.node[1].core_layer 	interests[1] 	90899
scalar tree_4_3_u02_r16_network.node[1].core_layer 	data[1] 	90887
scalar tree_4_3_u02_r16_network.node[1].content_store 	p_hit[1] 	0
scalar tree_4_3_u02_r16_network.node[1].content_store 	hits[1] 	0
scalar tree_4_3_u02_r16_network.node[1].content_store 	misses[1] 	90899
scalar tree_4_3_u02_r16_network.node[1].content_store 	decision_yes[1] 	0
scalar tree_4_3_u02_r16_network.node[1].content_store 	decision_no[1] 	90887
scalar tree_4_3_u02_r16_network.node[1].content_store 	decision_ratio[1] 	0
scalar tree_4_3_u02_r16_network.node[2].core_layer 	interests[2] 	91358
scalar tree_4_3_u02_r16_network.node[2].core_layer 	data[2] 	91346
scalar tree_4_3_u02_r16_network.node[2].content_store 	p_hit[2] 	0
scalar tree_4_3_u02_r16_network.node[2].content_store 	hits[2] 	0
scalar tree_4_3_u02_r16_network.node[2].content_store 	misses[2] 	91358
scalar tree_4_3_u02_r16_network.node[2].content_store 	decision_yes[2] 	0
scalar tree_4_3_u02_r16_network.node[2].content_store 	decision_no[2] 	91346
scalar tree_4_3_u02_r16_network.node[2].content_store 	decision_ratio[2] 	0
scalar tree_4_3_u02_r16_network.node[3].core_layer 	interests[3] 	91781
scalar tree_4_3_u02_r16_network.node[3].core_layer 	data[3] 	91777
scalar tree_4_3_u02_r16_network.node[3].content_store 	p_hit[3] 	0
scalar tree_4_3_u02_r16_network.node[3].content_store 	hits[3] 	0
scalar tree_4_3_u02_r16_network.node[3].content_store 	misses[3] 	91781
scalar tree_4_3_u02_r16_network.node[3].content_store 	decision_yes[3] 	0
scalar tree_4_3_u02_r16_network.node[3].content_store 	decision_no[3] 	91777
scalar tree_4_3_u02_r16_network.node[3].content_store 	decision_ratio[3] 	0
scalar tree_4_3_u02_r16_network.node[4].core_layer 	interests[4] 	30067
scalar tree_4_3_u02_r16_network.node[4].core_layer 	data[4] 	30064
scalar tree_4_3_u02_r16_network.node[4].content_store 	p_hit[4] 	0
scalar tree_4_3_u02_r16_network.node[4].content_store 	hits[4] 	0
scalar tree_4_3_u02_r16_network.node[4].content_store 	misses[4] 	30067
scalar tree_4_3_u02_r16_network.node[4].content_store 	decision_yes[4] 	0
scalar tree_4_3_u02_r16_network.node[4].content_store 	decision_no[4] 	30064
scalar tree_4_3_u02_r16_network.node[4].content_store 	decision_ratio[4] 	0
scalar tree_4_3_u02_r16_network.node[5].core_layer 	interests[5] 	30272
scalar tree_4_3_u02_r16_network.node[5].core_layer 	data[5] 	30268
scalar tree_4_3_u02_r16_network.node[5].content_store 	p_hit[5] 	0
scalar tree_4_3_u02_r16_network.node[5].content_store 	hits[5] 	0
scalar tree_4_3_u02_r16_network.node[5].content_store 	misses[5] 	30272
scalar tree_4_3_u02_r16_network.node[5].content_store 	decision_yes[5] 	0
scalar tree_4_3_u02_r16_network.node[5].content_store 	decision_no[5] 	30268
scalar tree_4_3_u02_r16_network.node[5].content_store 	decision_ratio[5] 	0
scalar tree_4_3_u02_r16_network.node[6].core_layer 	interests[6] 	30566
scalar tree_4_3_u02_r16_network.node[6].core_layer 	data[6] 	30565
scalar tree_4_3_u02_r16_network.node[6].content_store 	p_hit[6] 	0
scalar tree_4_3_u02_r16_network.node[6].content_store 	hits[6] 	0
scalar tree_4_3_u02_r16_network.node[6].content_store 	misses[6] 	30566
scalar tree_4_3_u02_r16_network.node[6].content_store 	decision_yes[6] 	0
scalar tree_4_3_u02_r16_network.node[6].content_store 	decision_no[6] 	30565
scalar tree_4_3_u02_r16_network.node[6].content_store 	decision_ratio[6] 	0
scalar tree_4_3_u02_r16_network.node[7].core_layer 	interests[7] 	40672
scalar tree_4_3_u02_r16_network.node[7].core_layer 	data[7] 	40671
scalar tree_4_3_u02_r16_network.node[7].content_store 	p_hit[7] 	0
scalar tree_4_3_u02_r16_network.node[7].content_store 	hits[7] 	0
scalar tree_4_3_u02_r16_network.node[7].content_store 	misses[7] 	40672
scalar tree_4_3_u02_r16_network.node[7].content_store 	decision_yes[7] 	0
scalar tree_4_3_u02_r16_network.node[7].content_store 	decision_no[7] 	40671
scalar tree_4_3_u02_r16_network.node[7].content_store 	decision_ratio[7] 	0
scalar tree_4_3_u02_r16_network.node[8].core_layer 	interests[8] 	30338
scalar tree_4_3_u02_r16_network.node[8].core_layer 	data[8] 	30332
scalar tree_4_3_u02_r16_network.node[8].content_store 	p_hit[8] 	0
scalar tree_4_3_u02_r16_network.node[8].content_store 	hits[8] 	0
scalar tree_4_3_u02_r16_network.node[8].content_store 	misses[8] 	30338
scalar tree_4_3_u02_r16_network.node[8].content_store 	decision_yes[8] 	0
scalar tree_4_3_u02_r16_network.node[8].content_store 	decision_no[8] 	30332
scalar tree_4_3_u02_r16_network.node[8].content_store 	decision_ratio[8] 	0
scalar tree_4_3_u02_r16_network.node[9].core_layer 	interests[9] 	20356
scalar tree_4_3_u02_r16_network.node[9].core_layer 	data[9] 	20354
scalar tree_4_3_u02_r16_network.node[9].content_store 	p_hit[9] 	0
scalar tree_4_3_u02_r16_network.node[9].content_store 	hits[9] 	0
scalar tree_4_3_u02_r16_network.node[9].content_store 	misses[9] 	20356
scalar tree_4_3_u02_r16_network.node[9].content_store 	decision_yes[9] 	0
scalar tree_4_3_u02_r16_network.node[9].content_store 	decision_no[9] 	20354
scalar tree_4_3_u02_r16_network.node[9].content_store 	decision_ratio[9] 	0
scalar tree_4_3_u02_r16_network.node[10].core_layer 	interests[10] 	40794
scalar tree_4_3_u02_r16_network.node[10].core_layer 	data[10] 	40788
scalar tree_4_3_u02_r16_network.node[10].content_store 	p_hit[10] 	0
scalar tree_4_3_u02_r16_network.node[10].content_store 	hits[10] 	0
scalar tree_4_3_u02_r16_network.node[10].content_store 	misses[10] 	40794
scalar tree_4_3_u02_r16_network.node[10].content_store 	decision_yes[10] 	0
scalar tree_4_3_u02_r16_network.node[10].content_store 	decision_no[10] 	40788
scalar tree_4_3_u02_r16_network.node[10].content_store 	decision_ratio[10] 	0
scalar tree_4_3_u02_r16_network.node[11].core_layer 	interests[11] 	20357
scalar tree_4_3_u02_r16_network.node[11].core_layer 	data[11] 	20357
scalar tree_4_3_u02_r16_network.node[11].content_store 	p_hit[11] 	0
scalar tree_4_3_u02_r16_network.node[11].content_store 	hits[11] 	0
scalar tree_4_3_u02_r16_network.node[11].content_store 	misses[11] 	20357
scalar tree_4_3_u02_r16_network.node[11].content_store 	decision_yes[11] 	0
scalar tree_4_3_u02_r16_network.node[11].content_store 	decision_no[11] 	20357
scalar tree_4_3_u02_r16_network.node[11].content_store 	decision_ratio[11] 	0
scalar tree_4_3_u02_r16_network.node[12].core_layer 	interests[12] 	30641
scalar tree_4_3_u02_r16_network.node[12].core_layer 	data[12] 	30637
scalar tree_4_3_u02_r16_network.node[12].content_store 	p_hit[12] 	0
scalar tree_4_3_u02_r16_network.node[12].content_store 	hits[12] 	0
scalar tree_4_3_u02_r16_network.node[12].content_store 	misses[12] 	30641
scalar tree_4_3_u02_r16_network.node[12].content_store 	decision_yes[12] 	0
scalar tree_4_3_u02_r16_network.node[12].content_store 	decision_no[12] 	30637
scalar tree_4_3_u02_r16_network.node[12].content_store 	decision_ratio[12] 	0
scalar tree_4_3_u02_r16_network.node[13].core_layer 	interests[13] 	12053
scalar tree_4_3_u02_r16_network.node[13].core_layer 	data[13] 	10157
scalar tree_4_3_u02_r16_network.node[13].content_store 	p_hit[13] 	0.15713930141873
scalar tree_4_3_u02_r16_network.node[13].content_store 	hits[13] 	1894
scalar tree_4_3_u02_r16_network.node[13].content_store 	misses[13] 	10159
scalar tree_4_3_u02_r16_network.node[13].content_store 	decision_yes[13] 	10157
scalar tree_4_3_u02_r16_network.node[13].content_store 	decision_no[13] 	0
scalar tree_4_3_u02_r16_network.node[13].content_store 	decision_ratio[13] 	1
scalar tree_4_3_u02_r16_network.node[14].core_layer 	interests[14] 	11877
scalar tree_4_3_u02_r16_network.node[14].core_layer 	data[14] 	10072
scalar tree_4_3_u02_r16_network.node[14].content_store 	p_hit[14] 	0.15189020796497
scalar tree_4_3_u02_r16_network.node[14].content_store 	hits[14] 	1804
scalar tree_4_3_u02_r16_network.node[14].content_store 	misses[14] 	10073
scalar tree_4_3_u02_r16_network.node[14].content_store 	decision_yes[14] 	10072
scalar tree_4_3_u02_r16_network.node[14].content_store 	decision_no[14] 	0
scalar tree_4_3_u02_r16_network.node[14].content_store 	decision_ratio[14] 	1
scalar tree_4_3_u02_r16_network.node[15].core_layer 	interests[15] 	11666
scalar tree_4_3_u02_r16_network.node[15].core_layer 	data[15] 	9837
scalar tree_4_3_u02_r16_network.node[15].content_store 	p_hit[15] 	0.15669466826676
scalar tree_4_3_u02_r16_network.node[15].content_store 	hits[15] 	1828
scalar tree_4_3_u02_r16_network.node[15].content_store 	misses[15] 	9838
scalar tree_4_3_u02_r16_network.node[15].content_store 	decision_yes[15] 	9837
scalar tree_4_3_u02_r16_network.node[15].content_store 	decision_no[15] 	0
scalar tree_4_3_u02_r16_network.node[15].content_store 	decision_ratio[15] 	1
scalar tree_4_3_u02_r16_network.node[16].core_layer 	interests[16] 	12162
scalar tree_4_3_u02_r16_network.node[16].core_layer 	data[16] 	10252
scalar tree_4_3_u02_r16_network.node[16].content_store 	p_hit[16] 	0.15688209176122
scalar tree_4_3_u02_r16_network.node[16].content_store 	hits[16] 	1908
scalar tree_4_3_u02_r16_network.node[16].content_store 	misses[16] 	10254
scalar tree_4_3_u02_r16_network.node[16].content_store 	decision_yes[16] 	10252
scalar tree_4_3_u02_r16_network.node[16].content_store 	decision_no[16] 	0
scalar tree_4_3_u02_r16_network.node[16].content_store 	decision_ratio[16] 	1
scalar tree_4_3_u02_r16_network.node[17].core_layer 	interests[17] 	11825
scalar tree_4_3_u02_r16_network.node[17].core_layer 	data[17] 	9977
scalar tree_4_3_u02_r16_network.node[17].content_store 	p_hit[17] 	0.15602536997886
scalar tree_4_3_u02_r16_network.node[17].content_store 	hits[17] 	1845
scalar tree_4_3_u02_r16_network.node[17].content_store 	misses[17] 	9980
scalar tree_4_3_u02_r16_network.node[17].content_store 	decision_yes[17] 	9977
scalar tree_4_3_u02_r16_network.node[17].content_store 	decision_no[17] 	0
scalar tree_4_3_u02_r16_network.node[17].content_store 	decision_ratio[17] 	1
scalar tree_4_3_u02_r16_network.node[18].core_layer 	interests[18] 	11980
scalar tree_4_3_u02_r16_network.node[18].core_layer 	data[18] 	10042
scalar tree_4_3_u02_r16_network.node[18].content_store 	p_hit[18] 	0.16151919866444
scalar tree_4_3_u02_r16_network.node[18].content_store 	hits[18] 	1935
scalar tree_4_3_u02_r16_network.node[18].content_store 	misses[18] 	10045
scalar tree_4_3_u02_r16_network.node[18].content_store 	decision_yes[18] 	10042
scalar tree_4_3_u02_r16_network.node[18].content_store 	decision_no[18] 	0
scalar tree_4_3_u02_r16_network.node[18].content_store 	decision_ratio[18] 	1
scalar tree_4_3_u02_r16_network.node[19].core_layer 	interests[19] 	12035
scalar tree_4_3_u02_r16_network.node[19].core_layer 	data[19] 	10258
scalar tree_4_3_u02_r16_network.node[19].content_store 	p_hit[19] 	0.14740340673037
scalar tree_4_3_u02_r16_network.node[19].content_store 	hits[19] 	1774
scalar tree_4_3_u02_r16_network.node[19].content_store 	misses[19] 	10261
scalar tree_4_3_u02_r16_network.node[19].content_store 	decision_yes[19] 	10258
scalar tree_4_3_u02_r16_network.node[19].content_store 	decision_no[19] 	0
scalar tree_4_3_u02_r16_network.node[19].content_store 	decision_ratio[19] 	1
scalar tree_4_3_u02_r16_network.node[20].core_layer 	interests[20] 	12068
scalar tree_4_3_u02_r16_network.node[20].core_layer 	data[20] 	10251
scalar tree_4_3_u02_r16_network.node[20].content_store 	p_hit[20] 	0.1503977461054
scalar tree_4_3_u02_r16_network.node[20].content_store 	hits[20] 	1815
scalar tree_4_3_u02_r16_network.node[20].content_store 	misses[20] 	10253
scalar tree_4_3_u02_r16_network.node[20].content_store 	decision_yes[20] 	10251
scalar tree_4_3_u02_r16_network.node[20].content_store 	decision_no[20] 	0
scalar tree_4_3_u02_r16_network.node[20].content_store 	decision_ratio[20] 	1
scalar tree_4_3_u02_r16_network.node[21].core_layer 	interests[21] 	11848
scalar tree_4_3_u02_r16_network.node[21].core_layer 	data[21] 	10057
scalar tree_4_3_u02_r16_network.node[21].content_store 	p_hit[21] 	0.1511647535449
scalar tree_4_3_u02_r16_network.node[21].content_store 	hits[21] 	1791
scalar tree_4_3_u02_r16_network.node[21].content_store 	misses[21] 	10057
scalar tree_4_3_u02_r16_network.node[21].content_store 	decision_yes[21] 	10057
scalar tree_4_3_u02_r16_network.node[21].content_store 	decision_no[21] 	0
scalar tree_4_3_u02_r16_network.node[21].content_store 	decision_ratio[21] 	1
scalar tree_4_3_u02_r16_network.node[22].core_layer 	interests[22] 	12036
scalar tree_4_3_u02_r16_network.node[22].core_layer 	data[22] 	10108
scalar tree_4_3_u02_r16_network.node[22].content_store 	p_hit[22] 	0.16001994017946
scalar tree_4_3_u02_r16_network.node[22].content_store 	hits[22] 	1926
scalar tree_4_3_u02_r16_network.node[22].content_store 	misses[22] 	10110
scalar tree_4_3_u02_r16_network.node[22].content_store 	decision_yes[22] 	10108
scalar tree_4_3_u02_r16_network.node[22].content_store 	decision_no[22] 	0
scalar tree_4_3_u02_r16_network.node[22].content_store 	decision_ratio[22] 	1
scalar tree_4_3_u02_r16_network.node[23].core_layer 	interests[23] 	12126
scalar tree_4_3_u02_r16_network.node[23].core_layer 	data[23] 	10263
scalar tree_4_3_u02_r16_network.node[23].content_store 	p_hit[23] 	0.15355434603332
scalar tree_4_3_u02_r16_network.node[23].content_store 	hits[23] 	1862
scalar tree_4_3_u02_r16_network.node[23].content_store 	misses[23] 	10264
scalar tree_4_3_u02_r16_network.node[23].content_store 	decision_yes[23] 	10263
scalar tree_4_3_u02_r16_network.node[23].content_store 	decision_no[23] 	0
scalar tree_4_3_u02_r16_network.node[23].content_store 	decision_ratio[23] 	1
scalar tree_4_3_u02_r16_network.node[24].core_layer 	interests[24] 	12083
scalar tree_4_3_u02_r16_network.node[24].core_layer 	data[24] 	10250
scalar tree_4_3_u02_r16_network.node[24].content_store 	p_hit[24] 	0.15170073657204
scalar tree_4_3_u02_r16_network.node[24].content_store 	hits[24] 	1833
scalar tree_4_3_u02_r16_network.node[24].content_store 	misses[24] 	10250
scalar tree_4_3_u02_r16_network.node[24].content_store 	decision_yes[24] 	10250
scalar tree_4_3_u02_r16_network.node[24].content_store 	decision_no[24] 	0
scalar tree_4_3_u02_r16_network.node[24].content_store 	decision_ratio[24] 	1
scalar tree_4_3_u02_r16_network.node[25].core_layer 	interests[25] 	11967
scalar tree_4_3_u02_r16_network.node[25].core_layer 	data[25] 	10133
scalar tree_4_3_u02_r16_network.node[25].content_store 	p_hit[25] 	0.15300409459347
scalar tree_4_3_u02_r16_network.node[25].content_store 	hits[25] 	1831
scalar tree_4_3_u02_r16_network.node[25].content_store 	misses[25] 	10136
scalar tree_4_3_u02_r16_network.node[25].content_store 	decision_yes[25] 	10133
scalar tree_4_3_u02_r16_network.node[25].content_store 	decision_no[25] 	0
scalar tree_4_3_u02_r16_network.node[25].content_store 	decision_ratio[25] 	1
scalar tree_4_3_u02_r16_network.node[26].core_layer 	interests[26] 	11982
scalar tree_4_3_u02_r16_network.node[26].core_layer 	data[26] 	10058
scalar tree_4_3_u02_r16_network.node[26].content_store 	p_hit[26] 	0.16049073610416
scalar tree_4_3_u02_r16_network.node[26].content_store 	hits[26] 	1923
scalar tree_4_3_u02_r16_network.node[26].content_store 	misses[26] 	10059
scalar tree_4_3_u02_r16_network.node[26].content_store 	decision_yes[26] 	10058
scalar tree_4_3_u02_r16_network.node[26].content_store 	decision_no[26] 	0
scalar tree_4_3_u02_r16_network.node[26].content_store 	decision_ratio[26] 	1
scalar tree_4_3_u02_r16_network.node[27].core_layer 	interests[27] 	12048
scalar tree_4_3_u02_r16_network.node[27].core_layer 	data[27] 	10145
scalar tree_4_3_u02_r16_network.node[27].content_store 	p_hit[27] 	0.15795152722444
scalar tree_4_3_u02_r16_network.node[27].content_store 	hits[27] 	1903
scalar tree_4_3_u02_r16_network.node[27].content_store 	misses[27] 	10145
scalar tree_4_3_u02_r16_network.node[27].content_store 	decision_yes[27] 	10145
scalar tree_4_3_u02_r16_network.node[27].content_store 	decision_no[27] 	0
scalar tree_4_3_u02_r16_network.node[27].content_store 	decision_ratio[27] 	1
scalar tree_4_3_u02_r16_network.node[28].core_layer 	interests[28] 	11861
scalar tree_4_3_u02_r16_network.node[28].core_layer 	data[28] 	10051
scalar tree_4_3_u02_r16_network.node[28].content_store 	p_hit[28] 	0.15234803136329
scalar tree_4_3_u02_r16_network.node[28].content_store 	hits[28] 	1807
scalar tree_4_3_u02_r16_network.node[28].content_store 	misses[28] 	10054
scalar tree_4_3_u02_r16_network.node[28].content_store 	decision_yes[28] 	10051
scalar tree_4_3_u02_r16_network.node[28].content_store 	decision_no[28] 	0
scalar tree_4_3_u02_r16_network.node[28].content_store 	decision_ratio[28] 	1
scalar tree_4_3_u02_r16_network.node[29].core_layer 	interests[29] 	12011
scalar tree_4_3_u02_r16_network.node[29].core_layer 	data[29] 	10082
scalar tree_4_3_u02_r16_network.node[29].content_store 	p_hit[29] 	0.16051952376988
scalar tree_4_3_u02_r16_network.node[29].content_store 	hits[29] 	1928
scalar tree_4_3_u02_r16_network.node[29].content_store 	misses[29] 	10083
scalar tree_4_3_u02_r16_network.node[29].content_store 	decision_yes[29] 	10082
scalar tree_4_3_u02_r16_network.node[29].content_store 	decision_no[29] 	0
scalar tree_4_3_u02_r16_network.node[29].content_store 	decision_ratio[29] 	1
scalar tree_4_3_u02_r16_network.node[30].core_layer 	interests[30] 	12189
scalar tree_4_3_u02_r16_network.node[30].core_layer 	data[30] 	10274
scalar tree_4_3_u02_r16_network.node[30].content_store 	p_hit[30] 	0.15710886865206
scalar tree_4_3_u02_r16_network.node[30].content_store 	hits[30] 	1915
scalar tree_4_3_u02_r16_network.node[30].content_store 	misses[30] 	10274
scalar tree_4_3_u02_r16_network.node[30].content_store 	decision_yes[30] 	10274
scalar tree_4_3_u02_r16_network.node[30].content_store 	decision_no[30] 	0
scalar tree_4_3_u02_r16_network.node[30].content_store 	decision_ratio[30] 	1
scalar tree_4_3_u02_r16_network.node[31].core_layer 	interests[31] 	12060
scalar tree_4_3_u02_r16_network.node[31].core_layer 	data[31] 	10227
scalar tree_4_3_u02_r16_network.node[31].content_store 	p_hit[31] 	0.15199004975124
scalar tree_4_3_u02_r16_network.node[31].content_store 	hits[31] 	1833
scalar tree_4_3_u02_r16_network.node[31].content_store 	misses[31] 	10227
scalar tree_4_3_u02_r16_network.node[31].content_store 	decision_yes[31] 	10227
scalar tree_4_3_u02_r16_network.node[31].content_store 	decision_no[31] 	0
scalar tree_4_3_u02_r16_network.node[31].content_store 	decision_ratio[31] 	1
scalar tree_4_3_u02_r16_network.node[32].core_layer 	interests[32] 	11925
scalar tree_4_3_u02_r16_network.node[32].core_layer 	data[32] 	10122
scalar tree_4_3_u02_r16_network.node[32].content_store 	p_hit[32] 	0.15119496855346
scalar tree_4_3_u02_r16_network.node[32].content_store 	hits[32] 	1803
scalar tree_4_3_u02_r16_network.node[32].content_store 	misses[32] 	10122
scalar tree_4_3_u02_r16_network.node[32].content_store 	decision_yes[32] 	10122
scalar tree_4_3_u02_r16_network.node[32].content_store 	decision_no[32] 	0
scalar tree_4_3_u02_r16_network.node[32].content_store 	decision_ratio[32] 	1
scalar tree_4_3_u02_r16_network.node[33].core_layer 	interests[33] 	12117
scalar tree_4_3_u02_r16_network.node[33].core_layer 	data[33] 	10280
scalar tree_4_3_u02_r16_network.node[33].content_store 	p_hit[33] 	0.15160518280102
scalar tree_4_3_u02_r16_network.node[33].content_store 	hits[33] 	1837
scalar tree_4_3_u02_r16_network.node[33].content_store 	misses[33] 	10280
scalar tree_4_3_u02_r16_network.node[33].content_store 	decision_yes[33] 	10280
scalar tree_4_3_u02_r16_network.node[33].content_store 	decision_no[33] 	0
scalar tree_4_3_u02_r16_network.node[33].content_store 	decision_ratio[33] 	1
scalar tree_4_3_u02_r16_network.node[34].core_layer 	interests[34] 	12052
scalar tree_4_3_u02_r16_network.node[34].core_layer 	data[34] 	10166
scalar tree_4_3_u02_r16_network.node[34].content_store 	p_hit[34] 	0.15648854961832
scalar tree_4_3_u02_r16_network.node[34].content_store 	hits[34] 	1886
scalar tree_4_3_u02_r16_network.node[34].content_store 	misses[34] 	10166
scalar tree_4_3_u02_r16_network.node[34].content_store 	decision_yes[34] 	10166
scalar tree_4_3_u02_r16_network.node[34].content_store 	decision_no[34] 	0
scalar tree_4_3_u02_r16_network.node[34].content_store 	decision_ratio[34] 	1
scalar tree_4_3_u02_r16_network.node[35].core_layer 	interests[35] 	12010
scalar tree_4_3_u02_r16_network.node[35].core_layer 	data[35] 	10182
scalar tree_4_3_u02_r16_network.node[35].content_store 	p_hit[35] 	0.15212323064113
scalar tree_4_3_u02_r16_network.node[35].content_store 	hits[35] 	1827
scalar tree_4_3_u02_r16_network.node[35].content_store 	misses[35] 	10183
scalar tree_4_3_u02_r16_network.node[35].content_store 	decision_yes[35] 	10182
scalar tree_4_3_u02_r16_network.node[35].content_store 	decision_no[35] 	0
scalar tree_4_3_u02_r16_network.node[35].content_store 	decision_ratio[35] 	1
scalar tree_4_3_u02_r16_network.node[36].core_layer 	interests[36] 	12130
scalar tree_4_3_u02_r16_network.node[36].core_layer 	data[36] 	10175
scalar tree_4_3_u02_r16_network.node[36].content_store 	p_hit[36] 	0.16108821104699
scalar tree_4_3_u02_r16_network.node[36].content_store 	hits[36] 	1954
scalar tree_4_3_u02_r16_network.node[36].content_store 	misses[36] 	10176
scalar tree_4_3_u02_r16_network.node[36].content_store 	decision_yes[36] 	10175
scalar tree_4_3_u02_r16_network.node[36].content_store 	decision_no[36] 	0
scalar tree_4_3_u02_r16_network.node[36].content_store 	decision_ratio[36] 	1
scalar tree_4_3_u02_r16_network.node[37].core_layer 	interests[37] 	12151
scalar tree_4_3_u02_r16_network.node[37].core_layer 	data[37] 	10273
scalar tree_4_3_u02_r16_network.node[37].content_store 	p_hit[37] 	0.15439058513703
scalar tree_4_3_u02_r16_network.node[37].content_store 	hits[37] 	1876
scalar tree_4_3_u02_r16_network.node[37].content_store 	misses[37] 	10275
scalar tree_4_3_u02_r16_network.node[37].content_store 	decision_yes[37] 	10273
scalar tree_4_3_u02_r16_network.node[37].content_store 	decision_no[37] 	0
scalar tree_4_3_u02_r16_network.node[37].content_store 	decision_ratio[37] 	1
scalar tree_4_3_u02_r16_network.node[38].core_layer 	interests[38] 	12083
scalar tree_4_3_u02_r16_network.node[38].core_layer 	data[38] 	10330
scalar tree_4_3_u02_r16_network.node[38].content_store 	p_hit[38] 	0.14491434246462
scalar tree_4_3_u02_r16_network.node[38].content_store 	hits[38] 	1751
scalar tree_4_3_u02_r16_network.node[38].content_store 	misses[38] 	10332
scalar tree_4_3_u02_r16_network.node[38].content_store 	decision_yes[38] 	10330
scalar tree_4_3_u02_r16_network.node[38].content_store 	decision_no[38] 	0
scalar tree_4_3_u02_r16_network.node[38].content_store 	decision_ratio[38] 	1
scalar tree_4_3_u02_r16_network.node[39].core_layer 	interests[39] 	11954
scalar tree_4_3_u02_r16_network.node[39].core_layer 	data[39] 	10038
scalar tree_4_3_u02_r16_network.node[39].content_store 	p_hit[39] 	0.1599464614355
scalar tree_4_3_u02_r16_network.node[39].content_store 	hits[39] 	1912
scalar tree_4_3_u02_r16_network.node[39].content_store 	misses[39] 	10042
scalar tree_4_3_u02_r16_network.node[39].content_store 	decision_yes[39] 	10038
scalar tree_4_3_u02_r16_network.node[39].content_store 	decision_no[39] 	0
scalar tree_4_3_u02_r16_network.node[39].content_store 	decision_ratio[39] 	1
scalar tree_4_3_u02_r16_network.client[13] 	hdistance[13] 	3.3713384781346
scalar tree_4_3_u02_r16_network.client[13] 	downloads[13] 	12051
scalar tree_4_3_u02_r16_network.client[13] 	avg_time[13] 	0.00505653811
scalar tree_4_3_u02_r16_network.client[14] 	hdistance[14] 	3.3923880094308
scalar tree_4_3_u02_r16_network.client[14] 	downloads[14] 	11876
scalar tree_4_3_u02_r16_network.client[14] 	avg_time[14] 	0.005088273979
scalar tree_4_3_u02_r16_network.client[15] 	hdistance[15] 	3.3731675953708
scalar tree_4_3_u02_r16_network.client[15] 	downloads[15] 	11665
scalar tree_4_3_u02_r16_network.client[15] 	avg_time[15] 	0.005059316777
scalar tree_4_3_u02_r16_network.client[16] 	hdistance[16] 	3.3723684210526
scalar tree_4_3_u02_r16_network.client[16] 	downloads[16] 	12160
scalar tree_4_3_u02_r16_network.client[16] 	avg_time[16] 	0.005058488572
scalar tree_4_3_u02_r16_network.client[17] 	hdistance[17] 	3.3757401454915
scalar tree_4_3_u02_r16_network.client[17] 	downloads[17] 	11822
scalar tree_4_3_u02_r16_network.client[17] 	avg_time[17] 	0.00506293375
scalar tree_4_3_u02_r16_network.client[18] 	hdistance[18] 	3.3537613759706
scalar tree_4_3_u02_r16_network.client[18] 	downloads[18] 	11977
scalar tree_4_3_u02_r16_network.client[18] 	avg_time[18] 	0.00502926689
scalar tree_4_3_u02_r16_network.client[19] 	hdistance[19] 	3.4102393617021
scalar tree_4_3_u02_r16_network.client[19] 	downloads[19] 	12032
scalar tree_4_3_u02_r16_network.client[19] 	avg_time[19] 	0.005114399538
scalar tree_4_3_u02_r16_network.client[20] 	hdistance[20] 	3.3983092988563
scalar tree_4_3_u02_r16_network.client[20] 	downloads[20] 	12066
scalar tree_4_3_u02_r16_network.client[20] 	avg_time[20] 	0.005097082885
scalar tree_4_3_u02_r16_network.client[21] 	hdistance[21] 	3.3953409858204
scalar tree_4_3_u02_r16_network.client[21] 	downloads[21] 	11848
scalar tree_4_3_u02_r16_network.client[21] 	avg_time[21] 	0.005092685652
scalar tree_4_3_u02_r16_network.client[22] 	hdistance[22] 	3.3598138607279
scalar tree_4_3_u02_r16_network.client[22] 	downloads[22] 	12034
scalar tree_4_3_u02_r16_network.client[22] 	avg_time[22] 	0.005039337946
scalar tree_4_3_u02_r16_network.client[23] 	hdistance[23] 	3.3857319587629
scalar tree_4_3_u02_r16_network.client[23] 	downloads[23] 	12125
scalar tree_4_3_u02_r16_network.client[23] 	avg_time[23] 	0.005077978924
scalar tree_4_3_u02_r16_network.client[24] 	hdistance[24] 	3.3931970537118
scalar tree_4_3_u02_r16_network.client[24] 	downloads[24] 	12083
scalar tree_4_3_u02_r16_network.client[24] 	avg_time[24] 	0.005089501815
scalar tree_4_3_u02_r16_network.client[25] 	hdistance[25] 	3.3878301571381
scalar tree_4_3_u02_r16_network.client[25] 	downloads[25] 	11964
scalar tree_4_3_u02_r16_network.client[25] 	avg_time[25] 	0.005081058209
scalar tree_4_3_u02_r16_network.client[26] 	hdistance[26] 	3.3579834738336
scalar tree_4_3_u02_r16_network.client[26] 	downloads[26] 	11981
scalar tree_4_3_u02_r16_network.client[26] 	avg_time[26] 	0.005035823309
scalar tree_4_3_u02_r16_network.client[27] 	hdistance[27] 	3.3681938911023
scalar tree_4_3_u02_r16_network.client[27] 	downloads[27] 	12048
scalar tree_4_3_u02_r16_network.client[27] 	avg_time[27] 	0.005052145922
scalar tree_4_3_u02_r16_network.client[28] 	hdistance[28] 	3.390453702142
scalar tree_4_3_u02_r16_network.client[28] 	downloads[28] 	11858
scalar tree_4_3_u02_r16_network.client[28] 	avg_time[28] 	0.005085188854
scalar tree_4_3_u02_r16_network.client[29] 	hdistance[29] 	3.3578684429642
scalar tree_4_3_u02_r16_network.client[29] 	downloads[29] 	12010
scalar tree_4_3_u02_r16_network.client[29] 	avg_time[29] 	0.005036813082
scalar tree_4_3_u02_r16_network.client[30] 	hdistance[30] 	3.3715645253917
scalar tree_4_3_u02_r16_network.client[30] 	downloads[30] 	12189
scalar tree_4_3_u02_r16_network.client[30] 	avg_time[30] 	0.005056906807
scalar tree_4_3_u02_r16_network.client[31] 	hdistance[31] 	3.392039800995
scalar tree_4_3_u02_r16_network.client[31] 	downloads[31] 	12060
scalar tree_4_3_u02_r16_network.client[31] 	avg_time[31] 	0.005088056691
scalar tree_4_3_u02_r16_network.client[32] 	hdistance[32] 	3.3952201257862
scalar tree_4_3_u02_r16_network.client[32] 	downloads[32] 	11925
scalar tree_4_3_u02_r16_network.client[32] 	avg_time[32] 	0.00509245045
scalar tree_4_3_u02_r16_network.client[33] 	hdistance[33] 	3.3935792687959
scalar tree_4_3_u02_r16_network.client[33] 	downloads[33] 	12117
scalar tree_4_3_u02_r16_network.client[33] 	avg_time[33] 	0.005089707572
scalar tree_4_3_u02_r16_network.client[34] 	hdistance[34] 	3.3740458015267
scalar tree_4_3_u02_r16_network.client[34] 	downloads[34] 	12052
scalar tree_4_3_u02_r16_network.client[34] 	avg_time[34] 	0.005060332329
scalar tree_4_3_u02_r16_network.client[35] 	hdistance[35] 	3.3914564076942
scalar tree_4_3_u02_r16_network.client[35] 	downloads[35] 	12009
scalar tree_4_3_u02_r16_network.client[35] 	avg_time[35] 	0.005087050956
scalar tree_4_3_u02_r16_network.client[36] 	hdistance[36] 	3.3555940308352
scalar tree_4_3_u02_r16_network.client[36] 	downloads[36] 	12129
scalar tree_4_3_u02_r16_network.client[36] 	avg_time[36] 	0.005033148603
scalar tree_4_3_u02_r16_network.client[37] 	hdistance[37] 	3.3823359947321
scalar tree_4_3_u02_r16_network.client[37] 	downloads[37] 	12149
scalar tree_4_3_u02_r16_network.client[37] 	avg_time[37] 	0.005072877761
scalar tree_4_3_u02_r16_network.client[38] 	hdistance[38] 	3.4202466683222
scalar tree_4_3_u02_r16_network.client[38] 	downloads[38] 	12081
scalar tree_4_3_u02_r16_network.client[38] 	avg_time[38] 	0.005129548123
scalar tree_4_3_u02_r16_network.client[39] 	hdistance[39] 	3.36
scalar tree_4_3_u02_r16_network.client[39] 	downloads[39] 	11950
scalar tree_4_3_u02_r16_network.client[39] 	avg_time[39] 	0.005038454127
