version 2
run General-46-20160818-21:37:14-32642
attr a 0.9
attr cd lce
attr configname General
attr cr lru
attr datetime 20160818-21:37:14
attr experiment General
attr fsize 1
attr inifile hw5115/scenario_A/Edge.ini
attr iterationvars "$name=tree_4_3, $un=02, $rep=7, $scenario=Edge, $cd=lce, $cr=lru, $fsize=1, $a=0.9, $sl=spr, $ttl=1000, $variance=0.05"
attr iterationvars2 "$name=tree_4_3, $un=02, $rep=7, $scenario=Edge, $cd=lce, $cr=lru, $fsize=1, $a=0.9, $sl=spr, $ttl=1000, $variance=0.05, $repetition=0"
attr measurement "$name=tree_4_3, $un=02, $rep=7, $scenario=Edge, $cd=lce, $cr=lru, $fsize=1, $a=0.9, $sl=spr, $ttl=1000, $variance=0.05"
attr name tree_4_3
attr network networks.${name}_u${un}_r${rep}_network
attr processid 32642
attr rep 7
attr repetition 0
attr replication #0
attr resultdir results
attr runnumber 46
attr scenario Edge
attr seedset 7
attr sl spr
attr ttl 1000
attr un 02
attr variance 0.05

scalar . 	a 	0.9
scalar . 	fsize 	1
scalar . 	rep 	7
scalar . 	ttl 	1000
scalar . 	un 	02
scalar . 	variance 	0.05
scalar tree_4_3_u02_r7_network.content_distribution 	repo-0 	0
scalar tree_4_3_u02_r7_network.content_distribution 	client-0 	13
scalar tree_4_3_u02_r7_network.content_distribution 	client-1 	14
scalar tree_4_3_u02_r7_network.content_distribution 	client-2 	15
scalar tree_4_3_u02_r7_network.content_distribution 	client-3 	16
scalar tree_4_3_u02_r7_network.content_distribution 	client-4 	17
scalar tree_4_3_u02_r7_network.content_distribution 	client-5 	18
scalar tree_4_3_u02_r7_network.content_distribution 	client-6 	19
scalar tree_4_3_u02_r7_network.content_distribution 	client-7 	20
scalar tree_4_3_u02_r7_network.content_distribution 	client-8 	21
scalar tree_4_3_u02_r7_network.content_distribution 	client-9 	22
scalar tree_4_3_u02_r7_network.content_distribution 	client-10 	23
scalar tree_4_3_u02_r7_network.content_distribution 	client-11 	24
scalar tree_4_3_u02_r7_network.content_distribution 	client-12 	25
scalar tree_4_3_u02_r7_network.content_distribution 	client-13 	26
scalar tree_4_3_u02_r7_network.content_distribution 	client-14 	27
scalar tree_4_3_u02_r7_network.content_distribution 	client-15 	28
scalar tree_4_3_u02_r7_network.content_distribution 	client-16 	29
scalar tree_4_3_u02_r7_network.content_distribution 	client-17 	30
scalar tree_4_3_u02_r7_network.content_distribution 	client-18 	31
scalar tree_4_3_u02_r7_network.content_distribution 	client-19 	32
scalar tree_4_3_u02_r7_network.content_distribution 	client-20 	33
scalar tree_4_3_u02_r7_network.content_distribution 	client-21 	34
scalar tree_4_3_u02_r7_network.content_distribution 	client-22 	35
scalar tree_4_3_u02_r7_network.content_distribution 	client-23 	36
scalar tree_4_3_u02_r7_network.content_distribution 	client-24 	37
scalar tree_4_3_u02_r7_network.content_distribution 	client-25 	38
scalar tree_4_3_u02_r7_network.content_distribution 	client-26 	39
scalar tree_4_3_u02_r7_network.content_distribution 	repo-0_card 	100000
scalar tree_4_3_u02_r7_network.content_distribution 	repo-0_price 	0
scalar tree_4_3_u02_r7_network.statistics 	stabilization_time 	424.3
scalar tree_4_3_u02_r7_network.statistics 	p_hit 	0.10566343651111
scalar tree_4_3_u02_r7_network.statistics 	interests 	28611.075
scalar tree_4_3_u02_r7_network.statistics 	data 	20505.575
scalar tree_4_3_u02_r7_network.statistics 	hdistance 	3.3737945432765
scalar tree_4_3_u02_r7_network.statistics 	avg_time 	0.005060279304
scalar tree_4_3_u02_r7_network.statistics 	downloads 	324187
scalar tree_4_3_u02_r7_network.statistics 	total_cost 	0
scalar tree_4_3_u02_r7_network.statistics 	total_replicas 	100000
scalar tree_4_3_u02_r7_network.statistics 	inner_hit 	0.15671202114829
scalar tree_4_3_u02_r7_network.node[0].core_layer 	interests[0] 	273383
scalar tree_4_3_u02_r7_network.node[0].core_layer 	repo_load[0] 	273383
scalar tree_4_3_u02_r7_network.node[0].core_layer 	data[0] 	0
scalar tree_4_3_u02_r7_network.node[0].core_layer 	repo_int[0] 	273383
scalar tree_4_3_u02_r7_network.node[0].content_store 	p_hit[0] 	0
scalar tree_4_3_u02_r7_network.node[0].content_store 	hits[0] 	0
scalar tree_4_3_u02_r7_network.node[0].content_store 	misses[0] 	273383
scalar tree_4_3_u02_r7_network.node[0].content_store 	decision_yes[0] 	0
scalar tree_4_3_u02_r7_network.node[0].content_store 	decision_no[0] 	273383
scalar tree_4_3_u02_r7_network.node[0].content_store 	decision_ratio[0] 	0
scalar tree_4_3_u02_r7_network.node[1].core_layer 	interests[1] 	90798
scalar tree_4_3_u02_r7_network.node[1].core_layer 	data[1] 	90785
scalar tree_4_3_u02_r7_network.node[1].content_store 	p_hit[1] 	0
scalar tree_4_3_u02_r7_network.node[1].content_store 	hits[1] 	0
scalar tree_4_3_u02_r7_network.node[1].content_store 	misses[1] 	90798
scalar tree_4_3_u02_r7_network.node[1].content_store 	decision_yes[1] 	0
scalar tree_4_3_u02_r7_network.node[1].content_store 	decision_no[1] 	90785
scalar tree_4_3_u02_r7_network.node[1].content_store 	decision_ratio[1] 	0
scalar tree_4_3_u02_r7_network.node[2].core_layer 	interests[2] 	91333
scalar tree_4_3_u02_r7_network.node[2].core_layer 	data[2] 	91325
scalar tree_4_3_u02_r7_network.node[2].content_store 	p_hit[2] 	0
scalar tree_4_3_u02_r7_network.node[2].content_store 	hits[2] 	0
scalar tree_4_3_u02_r7_network.node[2].content_store 	misses[2] 	91333
scalar tree_4_3_u02_r7_network.node[2].content_store 	decision_yes[2] 	0
scalar tree_4_3_u02_r7_network.node[2].content_store 	decision_no[2] 	91325
scalar tree_4_3_u02_r7_network.node[2].content_store 	decision_ratio[2] 	0
scalar tree_4_3_u02_r7_network.node[3].core_layer 	interests[3] 	91281
scalar tree_4_3_u02_r7_network.node[3].core_layer 	data[3] 	91271
scalar tree_4_3_u02_r7_network.node[3].content_store 	p_hit[3] 	0
scalar tree_4_3_u02_r7_network.node[3].content_store 	hits[3] 	0
scalar tree_4_3_u02_r7_network.node[3].content_store 	misses[3] 	91281
scalar tree_4_3_u02_r7_network.node[3].content_store 	decision_yes[3] 	0
scalar tree_4_3_u02_r7_network.node[3].content_store 	decision_no[3] 	91271
scalar tree_4_3_u02_r7_network.node[3].content_store 	decision_ratio[3] 	0
scalar tree_4_3_u02_r7_network.node[4].core_layer 	interests[4] 	30207
scalar tree_4_3_u02_r7_network.node[4].core_layer 	data[4] 	30203
scalar tree_4_3_u02_r7_network.node[4].content_store 	p_hit[4] 	0
scalar tree_4_3_u02_r7_network.node[4].content_store 	hits[4] 	0
scalar tree_4_3_u02_r7_network.node[4].content_store 	misses[4] 	30207
scalar tree_4_3_u02_r7_network.node[4].content_store 	decision_yes[4] 	0
scalar tree_4_3_u02_r7_network.node[4].content_store 	decision_no[4] 	30203
scalar tree_4_3_u02_r7_network.node[4].content_store 	decision_ratio[4] 	0
scalar tree_4_3_u02_r7_network.node[5].core_layer 	interests[5] 	40300
scalar tree_4_3_u02_r7_network.node[5].core_layer 	data[5] 	40296
scalar tree_4_3_u02_r7_network.node[5].content_store 	p_hit[5] 	0
scalar tree_4_3_u02_r7_network.node[5].content_store 	hits[5] 	0
scalar tree_4_3_u02_r7_network.node[5].content_store 	misses[5] 	40300
scalar tree_4_3_u02_r7_network.node[5].content_store 	decision_yes[5] 	0
scalar tree_4_3_u02_r7_network.node[5].content_store 	decision_no[5] 	40296
scalar tree_4_3_u02_r7_network.node[5].content_store 	decision_ratio[5] 	0
scalar tree_4_3_u02_r7_network.node[6].core_layer 	interests[6] 	20298
scalar tree_4_3_u02_r7_network.node[6].core_layer 	data[6] 	20298
scalar tree_4_3_u02_r7_network.node[6].content_store 	p_hit[6] 	0
scalar tree_4_3_u02_r7_network.node[6].content_store 	hits[6] 	0
scalar tree_4_3_u02_r7_network.node[6].content_store 	misses[6] 	20298
scalar tree_4_3_u02_r7_network.node[6].content_store 	decision_yes[6] 	0
scalar tree_4_3_u02_r7_network.node[6].content_store 	decision_no[6] 	20298
scalar tree_4_3_u02_r7_network.node[6].content_store 	decision_ratio[6] 	0
scalar tree_4_3_u02_r7_network.node[7].core_layer 	interests[7] 	40481
scalar tree_4_3_u02_r7_network.node[7].core_layer 	data[7] 	40473
scalar tree_4_3_u02_r7_network.node[7].content_store 	p_hit[7] 	0
scalar tree_4_3_u02_r7_network.node[7].content_store 	hits[7] 	0
scalar tree_4_3_u02_r7_network.node[7].content_store 	misses[7] 	40481
scalar tree_4_3_u02_r7_network.node[7].content_store 	decision_yes[7] 	0
scalar tree_4_3_u02_r7_network.node[7].content_store 	decision_no[7] 	40473
scalar tree_4_3_u02_r7_network.node[7].content_store 	decision_ratio[7] 	0
scalar tree_4_3_u02_r7_network.node[8].core_layer 	interests[8] 	30329
scalar tree_4_3_u02_r7_network.node[8].core_layer 	data[8] 	30327
scalar tree_4_3_u02_r7_network.node[8].content_store 	p_hit[8] 	0
scalar tree_4_3_u02_r7_network.node[8].content_store 	hits[8] 	0
scalar tree_4_3_u02_r7_network.node[8].content_store 	misses[8] 	30329
scalar tree_4_3_u02_r7_network.node[8].content_store 	decision_yes[8] 	0
scalar tree_4_3_u02_r7_network.node[8].content_store 	decision_no[8] 	30327
scalar tree_4_3_u02_r7_network.node[8].content_store 	decision_ratio[8] 	0
scalar tree_4_3_u02_r7_network.node[9].core_layer 	interests[9] 	20531
scalar tree_4_3_u02_r7_network.node[9].core_layer 	data[9] 	20531
scalar tree_4_3_u02_r7_network.node[9].content_store 	p_hit[9] 	0
scalar tree_4_3_u02_r7_network.node[9].content_store 	hits[9] 	0
scalar tree_4_3_u02_r7_network.node[9].content_store 	misses[9] 	20531
scalar tree_4_3_u02_r7_network.node[9].content_store 	decision_yes[9] 	0
scalar tree_4_3_u02_r7_network.node[9].content_store 	decision_no[9] 	20531
scalar tree_4_3_u02_r7_network.node[9].content_store 	decision_ratio[9] 	0
scalar tree_4_3_u02_r7_network.node[10].core_layer 	interests[10] 	30611
scalar tree_4_3_u02_r7_network.node[10].core_layer 	data[10] 	30610
scalar tree_4_3_u02_r7_network.node[10].content_store 	p_hit[10] 	0
scalar tree_4_3_u02_r7_network.node[10].content_store 	hits[10] 	0
scalar tree_4_3_u02_r7_network.node[10].content_store 	misses[10] 	30611
scalar tree_4_3_u02_r7_network.node[10].content_store 	decision_yes[10] 	0
scalar tree_4_3_u02_r7_network.node[10].content_store 	decision_no[10] 	30610
scalar tree_4_3_u02_r7_network.node[10].content_store 	decision_ratio[10] 	0
scalar tree_4_3_u02_r7_network.node[11].core_layer 	interests[11] 	30364
scalar tree_4_3_u02_r7_network.node[11].core_layer 	data[11] 	30361
scalar tree_4_3_u02_r7_network.node[11].content_store 	p_hit[11] 	0
scalar tree_4_3_u02_r7_network.node[11].content_store 	hits[11] 	0
scalar tree_4_3_u02_r7_network.node[11].content_store 	misses[11] 	30364
scalar tree_4_3_u02_r7_network.node[11].content_store 	decision_yes[11] 	0
scalar tree_4_3_u02_r7_network.node[11].content_store 	decision_no[11] 	30361
scalar tree_4_3_u02_r7_network.node[11].content_store 	decision_ratio[11] 	0
scalar tree_4_3_u02_r7_network.node[12].core_layer 	interests[12] 	30313
scalar tree_4_3_u02_r7_network.node[12].core_layer 	data[12] 	30310
scalar tree_4_3_u02_r7_network.node[12].content_store 	p_hit[12] 	0
scalar tree_4_3_u02_r7_network.node[12].content_store 	hits[12] 	0
scalar tree_4_3_u02_r7_network.node[12].content_store 	misses[12] 	30313
scalar tree_4_3_u02_r7_network.node[12].content_store 	decision_yes[12] 	0
scalar tree_4_3_u02_r7_network.node[12].content_store 	decision_no[12] 	30310
scalar tree_4_3_u02_r7_network.node[12].content_store 	decision_ratio[12] 	0
scalar tree_4_3_u02_r7_network.node[13].core_layer 	interests[13] 	11974
scalar tree_4_3_u02_r7_network.node[13].core_layer 	data[13] 	10084
scalar tree_4_3_u02_r7_network.node[13].content_store 	p_hit[13] 	0.15784199098046
scalar tree_4_3_u02_r7_network.node[13].content_store 	hits[13] 	1890
scalar tree_4_3_u02_r7_network.node[13].content_store 	misses[13] 	10084
scalar tree_4_3_u02_r7_network.node[13].content_store 	decision_yes[13] 	10084
scalar tree_4_3_u02_r7_network.node[13].content_store 	decision_no[13] 	0
scalar tree_4_3_u02_r7_network.node[13].content_store 	decision_ratio[13] 	1
scalar tree_4_3_u02_r7_network.node[14].core_layer 	interests[14] 	11896
scalar tree_4_3_u02_r7_network.node[14].core_layer 	data[14] 	10010
scalar tree_4_3_u02_r7_network.node[14].content_store 	p_hit[14] 	0.15854068594486
scalar tree_4_3_u02_r7_network.node[14].content_store 	hits[14] 	1886
scalar tree_4_3_u02_r7_network.node[14].content_store 	misses[14] 	10010
scalar tree_4_3_u02_r7_network.node[14].content_store 	decision_yes[14] 	10010
scalar tree_4_3_u02_r7_network.node[14].content_store 	decision_no[14] 	0
scalar tree_4_3_u02_r7_network.node[14].content_store 	decision_ratio[14] 	1
scalar tree_4_3_u02_r7_network.node[15].core_layer 	interests[15] 	11972
scalar tree_4_3_u02_r7_network.node[15].core_layer 	data[15] 	10112
scalar tree_4_3_u02_r7_network.node[15].content_store 	p_hit[15] 	0.15519545606415
scalar tree_4_3_u02_r7_network.node[15].content_store 	hits[15] 	1858
scalar tree_4_3_u02_r7_network.node[15].content_store 	misses[15] 	10114
scalar tree_4_3_u02_r7_network.node[15].content_store 	decision_yes[15] 	10112
scalar tree_4_3_u02_r7_network.node[15].content_store 	decision_no[15] 	0
scalar tree_4_3_u02_r7_network.node[15].content_store 	decision_ratio[15] 	1
scalar tree_4_3_u02_r7_network.node[16].core_layer 	interests[16] 	11943
scalar tree_4_3_u02_r7_network.node[16].core_layer 	data[16] 	10019
scalar tree_4_3_u02_r7_network.node[16].content_store 	p_hit[16] 	0.16093108934104
scalar tree_4_3_u02_r7_network.node[16].content_store 	hits[16] 	1922
scalar tree_4_3_u02_r7_network.node[16].content_store 	misses[16] 	10021
scalar tree_4_3_u02_r7_network.node[16].content_store 	decision_yes[16] 	10019
scalar tree_4_3_u02_r7_network.node[16].content_store 	decision_no[16] 	0
scalar tree_4_3_u02_r7_network.node[16].content_store 	decision_ratio[16] 	1
scalar tree_4_3_u02_r7_network.node[17].core_layer 	interests[17] 	11919
scalar tree_4_3_u02_r7_network.node[17].core_layer 	data[17] 	10012
scalar tree_4_3_u02_r7_network.node[17].content_store 	p_hit[17] 	0.16008054366977
scalar tree_4_3_u02_r7_network.node[17].content_store 	hits[17] 	1908
scalar tree_4_3_u02_r7_network.node[17].content_store 	misses[17] 	10011
scalar tree_4_3_u02_r7_network.node[17].content_store 	decision_yes[17] 	10012
scalar tree_4_3_u02_r7_network.node[17].content_store 	decision_no[17] 	0
scalar tree_4_3_u02_r7_network.node[17].content_store 	decision_ratio[17] 	1
scalar tree_4_3_u02_r7_network.node[18].core_layer 	interests[18] 	11961
scalar tree_4_3_u02_r7_network.node[18].core_layer 	data[18] 	10110
scalar tree_4_3_u02_r7_network.node[18].content_store 	p_hit[18] 	0.15433492182928
scalar tree_4_3_u02_r7_network.node[18].content_store 	hits[18] 	1846
scalar tree_4_3_u02_r7_network.node[18].content_store 	misses[18] 	10115
scalar tree_4_3_u02_r7_network.node[18].content_store 	decision_yes[18] 	10110
scalar tree_4_3_u02_r7_network.node[18].content_store 	decision_no[18] 	0
scalar tree_4_3_u02_r7_network.node[18].content_store 	decision_ratio[18] 	1
scalar tree_4_3_u02_r7_network.node[19].core_layer 	interests[19] 	12147
scalar tree_4_3_u02_r7_network.node[19].core_layer 	data[19] 	10253
scalar tree_4_3_u02_r7_network.node[19].content_store 	p_hit[19] 	0.15592327323619
scalar tree_4_3_u02_r7_network.node[19].content_store 	hits[19] 	1894
scalar tree_4_3_u02_r7_network.node[19].content_store 	misses[19] 	10253
scalar tree_4_3_u02_r7_network.node[19].content_store 	decision_yes[19] 	10253
scalar tree_4_3_u02_r7_network.node[19].content_store 	decision_no[19] 	0
scalar tree_4_3_u02_r7_network.node[19].content_store 	decision_ratio[19] 	1
scalar tree_4_3_u02_r7_network.node[20].core_layer 	interests[20] 	12068
scalar tree_4_3_u02_r7_network.node[20].core_layer 	data[20] 	10160
scalar tree_4_3_u02_r7_network.node[20].content_store 	p_hit[20] 	0.15793834935366
scalar tree_4_3_u02_r7_network.node[20].content_store 	hits[20] 	1906
scalar tree_4_3_u02_r7_network.node[20].content_store 	misses[20] 	10162
scalar tree_4_3_u02_r7_network.node[20].content_store 	decision_yes[20] 	10160
scalar tree_4_3_u02_r7_network.node[20].content_store 	decision_no[20] 	0
scalar tree_4_3_u02_r7_network.node[20].content_store 	decision_ratio[20] 	1
scalar tree_4_3_u02_r7_network.node[21].core_layer 	interests[21] 	11934
scalar tree_4_3_u02_r7_network.node[21].core_layer 	data[21] 	10045
scalar tree_4_3_u02_r7_network.node[21].content_store 	p_hit[21] 	0.15828724652254
scalar tree_4_3_u02_r7_network.node[21].content_store 	hits[21] 	1889
scalar tree_4_3_u02_r7_network.node[21].content_store 	misses[21] 	10045
scalar tree_4_3_u02_r7_network.node[21].content_store 	decision_yes[21] 	10045
scalar tree_4_3_u02_r7_network.node[21].content_store 	decision_no[21] 	0
scalar tree_4_3_u02_r7_network.node[21].content_store 	decision_ratio[21] 	1
scalar tree_4_3_u02_r7_network.node[22].core_layer 	interests[22] 	11944
scalar tree_4_3_u02_r7_network.node[22].core_layer 	data[22] 	10019
scalar tree_4_3_u02_r7_network.node[22].content_store 	p_hit[22] 	0.16116878767582
scalar tree_4_3_u02_r7_network.node[22].content_store 	hits[22] 	1925
scalar tree_4_3_u02_r7_network.node[22].content_store 	misses[22] 	10019
scalar tree_4_3_u02_r7_network.node[22].content_store 	decision_yes[22] 	10019
scalar tree_4_3_u02_r7_network.node[22].content_store 	decision_no[22] 	0
scalar tree_4_3_u02_r7_network.node[22].content_store 	decision_ratio[22] 	1
scalar tree_4_3_u02_r7_network.node[23].core_layer 	interests[23] 	12170
scalar tree_4_3_u02_r7_network.node[23].core_layer 	data[23] 	10257
scalar tree_4_3_u02_r7_network.node[23].content_store 	p_hit[23] 	0.15661462612983
scalar tree_4_3_u02_r7_network.node[23].content_store 	hits[23] 	1906
scalar tree_4_3_u02_r7_network.node[23].content_store 	misses[23] 	10264
scalar tree_4_3_u02_r7_network.node[23].content_store 	decision_yes[23] 	10257
scalar tree_4_3_u02_r7_network.node[23].content_store 	decision_no[23] 	0
scalar tree_4_3_u02_r7_network.node[23].content_store 	decision_ratio[23] 	1
scalar tree_4_3_u02_r7_network.node[24].core_layer 	interests[24] 	11898
scalar tree_4_3_u02_r7_network.node[24].core_layer 	data[24] 	10055
scalar tree_4_3_u02_r7_network.node[24].content_store 	p_hit[24] 	0.15481593545134
scalar tree_4_3_u02_r7_network.node[24].content_store 	hits[24] 	1842
scalar tree_4_3_u02_r7_network.node[24].content_store 	misses[24] 	10056
scalar tree_4_3_u02_r7_network.node[24].content_store 	decision_yes[24] 	10055
scalar tree_4_3_u02_r7_network.node[24].content_store 	decision_no[24] 	0
scalar tree_4_3_u02_r7_network.node[24].content_store 	decision_ratio[24] 	1
scalar tree_4_3_u02_r7_network.node[25].core_layer 	interests[25] 	11869
scalar tree_4_3_u02_r7_network.node[25].core_layer 	data[25] 	10069
scalar tree_4_3_u02_r7_network.node[25].content_store 	p_hit[25] 	0.15157132024602
scalar tree_4_3_u02_r7_network.node[25].content_store 	hits[25] 	1799
scalar tree_4_3_u02_r7_network.node[25].content_store 	misses[25] 	10070
scalar tree_4_3_u02_r7_network.node[25].content_store 	decision_yes[25] 	10069
scalar tree_4_3_u02_r7_network.node[25].content_store 	decision_no[25] 	0
scalar tree_4_3_u02_r7_network.node[25].content_store 	decision_ratio[25] 	1
scalar tree_4_3_u02_r7_network.node[26].core_layer 	interests[26] 	12055
scalar tree_4_3_u02_r7_network.node[26].core_layer 	data[26] 	10106
scalar tree_4_3_u02_r7_network.node[26].content_store 	p_hit[26] 	0.16159270012443
scalar tree_4_3_u02_r7_network.node[26].content_store 	hits[26] 	1948
scalar tree_4_3_u02_r7_network.node[26].content_store 	misses[26] 	10107
scalar tree_4_3_u02_r7_network.node[26].content_store 	decision_yes[26] 	10106
scalar tree_4_3_u02_r7_network.node[26].content_store 	decision_no[26] 	0
scalar tree_4_3_u02_r7_network.node[26].content_store 	decision_ratio[26] 	1
scalar tree_4_3_u02_r7_network.node[27].core_layer 	interests[27] 	12022
scalar tree_4_3_u02_r7_network.node[27].core_layer 	data[27] 	10154
scalar tree_4_3_u02_r7_network.node[27].content_store 	p_hit[27] 	0.155215438363
scalar tree_4_3_u02_r7_network.node[27].content_store 	hits[27] 	1866
scalar tree_4_3_u02_r7_network.node[27].content_store 	misses[27] 	10156
scalar tree_4_3_u02_r7_network.node[27].content_store 	decision_yes[27] 	10154
scalar tree_4_3_u02_r7_network.node[27].content_store 	decision_no[27] 	0
scalar tree_4_3_u02_r7_network.node[27].content_store 	decision_ratio[27] 	1
scalar tree_4_3_u02_r7_network.node[28].core_layer 	interests[28] 	11928
scalar tree_4_3_u02_r7_network.node[28].core_layer 	data[28] 	10148
scalar tree_4_3_u02_r7_network.node[28].content_store 	p_hit[28] 	0.14914486921529
scalar tree_4_3_u02_r7_network.node[28].content_store 	hits[28] 	1779
scalar tree_4_3_u02_r7_network.node[28].content_store 	misses[28] 	10149
scalar tree_4_3_u02_r7_network.node[28].content_store 	decision_yes[28] 	10148
scalar tree_4_3_u02_r7_network.node[28].content_store 	decision_no[28] 	0
scalar tree_4_3_u02_r7_network.node[28].content_store 	decision_ratio[28] 	1
scalar tree_4_3_u02_r7_network.node[29].core_layer 	interests[29] 	12337
scalar tree_4_3_u02_r7_network.node[29].core_layer 	data[29] 	10380
scalar tree_4_3_u02_r7_network.node[29].content_store 	p_hit[29] 	0.15862851584664
scalar tree_4_3_u02_r7_network.node[29].content_store 	hits[29] 	1957
scalar tree_4_3_u02_r7_network.node[29].content_store 	misses[29] 	10380
scalar tree_4_3_u02_r7_network.node[29].content_store 	decision_yes[29] 	10380
scalar tree_4_3_u02_r7_network.node[29].content_store 	decision_no[29] 	0
scalar tree_4_3_u02_r7_network.node[29].content_store 	decision_ratio[29] 	1
scalar tree_4_3_u02_r7_network.node[30].core_layer 	interests[30] 	11922
scalar tree_4_3_u02_r7_network.node[30].core_layer 	data[30] 	10151
scalar tree_4_3_u02_r7_network.node[30].content_store 	p_hit[30] 	0.14854890119108
scalar tree_4_3_u02_r7_network.node[30].content_store 	hits[30] 	1771
scalar tree_4_3_u02_r7_network.node[30].content_store 	misses[30] 	10151
scalar tree_4_3_u02_r7_network.node[30].content_store 	decision_yes[30] 	10151
scalar tree_4_3_u02_r7_network.node[30].content_store 	decision_no[30] 	0
scalar tree_4_3_u02_r7_network.node[30].content_store 	decision_ratio[30] 	1
scalar tree_4_3_u02_r7_network.node[31].core_layer 	interests[31] 	11978
scalar tree_4_3_u02_r7_network.node[31].core_layer 	data[31] 	10055
scalar tree_4_3_u02_r7_network.node[31].content_store 	p_hit[31] 	0.160544331274
scalar tree_4_3_u02_r7_network.node[31].content_store 	hits[31] 	1923
scalar tree_4_3_u02_r7_network.node[31].content_store 	misses[31] 	10055
scalar tree_4_3_u02_r7_network.node[31].content_store 	decision_yes[31] 	10055
scalar tree_4_3_u02_r7_network.node[31].content_store 	decision_no[31] 	0
scalar tree_4_3_u02_r7_network.node[31].content_store 	decision_ratio[31] 	1
scalar tree_4_3_u02_r7_network.node[32].core_layer 	interests[32] 	12254
scalar tree_4_3_u02_r7_network.node[32].core_layer 	data[32] 	10379
scalar tree_4_3_u02_r7_network.node[32].content_store 	p_hit[32] 	0.15301126162886
scalar tree_4_3_u02_r7_network.node[32].content_store 	hits[32] 	1875
scalar tree_4_3_u02_r7_network.node[32].content_store 	misses[32] 	10379
scalar tree_4_3_u02_r7_network.node[32].content_store 	decision_yes[32] 	10379
scalar tree_4_3_u02_r7_network.node[32].content_store 	decision_no[32] 	0
scalar tree_4_3_u02_r7_network.node[32].content_store 	decision_ratio[32] 	1
scalar tree_4_3_u02_r7_network.node[33].core_layer 	interests[33] 	12065
scalar tree_4_3_u02_r7_network.node[33].core_layer 	data[33] 	10177
scalar tree_4_3_u02_r7_network.node[33].content_store 	p_hit[33] 	0.15640281806879
scalar tree_4_3_u02_r7_network.node[33].content_store 	hits[33] 	1887
scalar tree_4_3_u02_r7_network.node[33].content_store 	misses[33] 	10178
scalar tree_4_3_u02_r7_network.node[33].content_store 	decision_yes[33] 	10177
scalar tree_4_3_u02_r7_network.node[33].content_store 	decision_no[33] 	0
scalar tree_4_3_u02_r7_network.node[33].content_store 	decision_ratio[33] 	1
scalar tree_4_3_u02_r7_network.node[34].core_layer 	interests[34] 	11878
scalar tree_4_3_u02_r7_network.node[34].core_layer 	data[34] 	10053
scalar tree_4_3_u02_r7_network.node[34].content_store 	p_hit[34] 	0.15347701633272
scalar tree_4_3_u02_r7_network.node[34].content_store 	hits[34] 	1823
scalar tree_4_3_u02_r7_network.node[34].content_store 	misses[34] 	10055
scalar tree_4_3_u02_r7_network.node[34].content_store 	decision_yes[34] 	10053
scalar tree_4_3_u02_r7_network.node[34].content_store 	decision_no[34] 	0
scalar tree_4_3_u02_r7_network.node[34].content_store 	decision_ratio[34] 	1
scalar tree_4_3_u02_r7_network.node[35].core_layer 	interests[35] 	12229
scalar tree_4_3_u02_r7_network.node[35].core_layer 	data[35] 	10289
scalar tree_4_3_u02_r7_network.node[35].content_store 	p_hit[35] 	0.15863930002453
scalar tree_4_3_u02_r7_network.node[35].content_store 	hits[35] 	1940
scalar tree_4_3_u02_r7_network.node[35].content_store 	misses[35] 	10289
scalar tree_4_3_u02_r7_network.node[35].content_store 	decision_yes[35] 	10289
scalar tree_4_3_u02_r7_network.node[35].content_store 	decision_no[35] 	0
scalar tree_4_3_u02_r7_network.node[35].content_store 	decision_ratio[35] 	1
scalar tree_4_3_u02_r7_network.node[36].core_layer 	interests[36] 	11899
scalar tree_4_3_u02_r7_network.node[36].core_layer 	data[36] 	10022
scalar tree_4_3_u02_r7_network.node[36].content_store 	p_hit[36] 	0.15766030758887
scalar tree_4_3_u02_r7_network.node[36].content_store 	hits[36] 	1876
scalar tree_4_3_u02_r7_network.node[36].content_store 	misses[36] 	10023
scalar tree_4_3_u02_r7_network.node[36].content_store 	decision_yes[36] 	10022
scalar tree_4_3_u02_r7_network.node[36].content_store 	decision_no[36] 	0
scalar tree_4_3_u02_r7_network.node[36].content_store 	decision_ratio[36] 	1
scalar tree_4_3_u02_r7_network.node[37].core_layer 	interests[37] 	11801
scalar tree_4_3_u02_r7_network.node[37].core_layer 	data[37] 	9945
scalar tree_4_3_u02_r7_network.node[37].content_store 	p_hit[37] 	0.1573595458012
scalar tree_4_3_u02_r7_network.node[37].content_store 	hits[37] 	1857
scalar tree_4_3_u02_r7_network.node[37].content_store 	misses[37] 	9944
scalar tree_4_3_u02_r7_network.node[37].content_store 	decision_yes[37] 	9945
scalar tree_4_3_u02_r7_network.node[37].content_store 	decision_no[37] 	0
scalar tree_4_3_u02_r7_network.node[37].content_store 	decision_ratio[37] 	1
scalar tree_4_3_u02_r7_network.node[38].core_layer 	interests[38] 	12166
scalar tree_4_3_u02_r7_network.node[38].core_layer 	data[38] 	10225
scalar tree_4_3_u02_r7_network.node[38].content_store 	p_hit[38] 	0.15954298865691
scalar tree_4_3_u02_r7_network.node[38].content_store 	hits[38] 	1941
scalar tree_4_3_u02_r7_network.node[38].content_store 	misses[38] 	10225
scalar tree_4_3_u02_r7_network.node[38].content_store 	decision_yes[38] 	10225
scalar tree_4_3_u02_r7_network.node[38].content_store 	decision_no[38] 	0
scalar tree_4_3_u02_r7_network.node[38].content_store 	decision_ratio[38] 	1
scalar tree_4_3_u02_r7_network.node[39].core_layer 	interests[39] 	11985
scalar tree_4_3_u02_r7_network.node[39].core_layer 	data[39] 	10144
scalar tree_4_3_u02_r7_network.node[39].content_store 	p_hit[39] 	0.15352523988319
scalar tree_4_3_u02_r7_network.node[39].content_store 	hits[39] 	1840
scalar tree_4_3_u02_r7_network.node[39].content_store 	misses[39] 	10145
scalar tree_4_3_u02_r7_network.node[39].content_store 	decision_yes[39] 	10144
scalar tree_4_3_u02_r7_network.node[39].content_store 	decision_no[39] 	0
scalar tree_4_3_u02_r7_network.node[39].content_store 	decision_ratio[39] 	1
scalar tree_4_3_u02_r7_network.client[13] 	hdistance[13] 	3.3686320360782
scalar tree_4_3_u02_r7_network.client[13] 	downloads[13] 	11974
scalar tree_4_3_u02_r7_network.client[13] 	avg_time[13] 	0.005052491663
scalar tree_4_3_u02_r7_network.client[14] 	hdistance[14] 	3.3658372562206
scalar tree_4_3_u02_r7_network.client[14] 	downloads[14] 	11896
scalar tree_4_3_u02_r7_network.client[14] 	avg_time[14] 	0.005048752924
scalar tree_4_3_u02_r7_network.client[15] 	hdistance[15] 	3.3791144527987
scalar tree_4_3_u02_r7_network.client[15] 	downloads[15] 	11970
scalar tree_4_3_u02_r7_network.client[15] 	avg_time[15] 	0.005067941992
scalar tree_4_3_u02_r7_network.client[16] 	hdistance[16] 	3.3561678251403
scalar tree_4_3_u02_r7_network.client[16] 	downloads[16] 	11941
scalar tree_4_3_u02_r7_network.client[16] 	avg_time[16] 	0.005033479702
scalar tree_4_3_u02_r7_network.client[17] 	hdistance[17] 	3.3597315436242
scalar tree_4_3_u02_r7_network.client[17] 	downloads[17] 	11920
scalar tree_4_3_u02_r7_network.client[17] 	avg_time[17] 	0.005039277607
scalar tree_4_3_u02_r7_network.client[18] 	hdistance[18] 	3.3824021411843
scalar tree_4_3_u02_r7_network.client[18] 	downloads[18] 	11956
scalar tree_4_3_u02_r7_network.client[18] 	avg_time[18] 	0.005072296651
scalar tree_4_3_u02_r7_network.client[19] 	hdistance[19] 	3.3763069070552
scalar tree_4_3_u02_r7_network.client[19] 	downloads[19] 	12147
scalar tree_4_3_u02_r7_network.client[19] 	avg_time[19] 	0.005064364187
scalar tree_4_3_u02_r7_network.client[20] 	hdistance[20] 	3.3681418862921
scalar tree_4_3_u02_r7_network.client[20] 	downloads[20] 	12066
scalar tree_4_3_u02_r7_network.client[20] 	avg_time[20] 	0.005051760257
scalar tree_4_3_u02_r7_network.client[21] 	hdistance[21] 	3.3668510139098
scalar tree_4_3_u02_r7_network.client[21] 	downloads[21] 	11934
scalar tree_4_3_u02_r7_network.client[21] 	avg_time[21] 	0.005050094454
scalar tree_4_3_u02_r7_network.client[22] 	hdistance[22] 	3.3553248492967
scalar tree_4_3_u02_r7_network.client[22] 	downloads[22] 	11944
scalar tree_4_3_u02_r7_network.client[22] 	avg_time[22] 	0.00503286163
scalar tree_4_3_u02_r7_network.client[23] 	hdistance[23] 	3.3731809586451
scalar tree_4_3_u02_r7_network.client[23] 	downloads[23] 	12163
scalar tree_4_3_u02_r7_network.client[23] 	avg_time[23] 	0.005058303483
scalar tree_4_3_u02_r7_network.client[24] 	hdistance[24] 	3.3806842061024
scalar tree_4_3_u02_r7_network.client[24] 	downloads[24] 	11897
scalar tree_4_3_u02_r7_network.client[24] 	avg_time[24] 	0.005070691801
scalar tree_4_3_u02_r7_network.client[25] 	hdistance[25] 	3.3936636332996
scalar tree_4_3_u02_r7_network.client[25] 	downloads[25] 	11868
scalar tree_4_3_u02_r7_network.client[25] 	avg_time[25] 	0.005090241082
scalar tree_4_3_u02_r7_network.client[26] 	hdistance[26] 	3.3535755765721
scalar tree_4_3_u02_r7_network.client[26] 	downloads[26] 	12054
scalar tree_4_3_u02_r7_network.client[26] 	avg_time[26] 	0.005030082715
scalar tree_4_3_u02_r7_network.client[27] 	hdistance[27] 	3.3790349417637
scalar tree_4_3_u02_r7_network.client[27] 	downloads[27] 	12020
scalar tree_4_3_u02_r7_network.client[27] 	avg_time[27] 	0.00506816659
scalar tree_4_3_u02_r7_network.client[28] 	hdistance[28] 	3.4033705038987
scalar tree_4_3_u02_r7_network.client[28] 	downloads[28] 	11927
scalar tree_4_3_u02_r7_network.client[28] 	avg_time[28] 	0.005104734295
scalar tree_4_3_u02_r7_network.client[29] 	hdistance[29] 	3.3654859366134
scalar tree_4_3_u02_r7_network.client[29] 	downloads[29] 	12337
scalar tree_4_3_u02_r7_network.client[29] 	avg_time[29] 	0.005048133745
scalar tree_4_3_u02_r7_network.client[30] 	hdistance[30] 	3.4058043952357
scalar tree_4_3_u02_r7_network.client[30] 	downloads[30] 	11922
scalar tree_4_3_u02_r7_network.client[30] 	avg_time[30] 	0.005108654687
scalar tree_4_3_u02_r7_network.client[31] 	hdistance[31] 	3.357822674904
scalar tree_4_3_u02_r7_network.client[31] 	downloads[31] 	11978
scalar tree_4_3_u02_r7_network.client[31] 	avg_time[31] 	0.005036611734
scalar tree_4_3_u02_r7_network.client[32] 	hdistance[32] 	3.3879549534846
scalar tree_4_3_u02_r7_network.client[32] 	downloads[32] 	12254
scalar tree_4_3_u02_r7_network.client[32] 	avg_time[32] 	0.00508184224
scalar tree_4_3_u02_r7_network.client[33] 	hdistance[33] 	3.3743368700265
scalar tree_4_3_u02_r7_network.client[33] 	downloads[33] 	12064
scalar tree_4_3_u02_r7_network.client[33] 	avg_time[33] 	0.005061010955
scalar tree_4_3_u02_r7_network.client[34] 	hdistance[34] 	3.3859885483328
scalar tree_4_3_u02_r7_network.client[34] 	downloads[34] 	11876
scalar tree_4_3_u02_r7_network.client[34] 	avg_time[34] 	0.005077874057
scalar tree_4_3_u02_r7_network.client[35] 	hdistance[35] 	3.3654427999019
scalar tree_4_3_u02_r7_network.client[35] 	downloads[35] 	12229
scalar tree_4_3_u02_r7_network.client[35] 	avg_time[35] 	0.005047895472
scalar tree_4_3_u02_r7_network.client[36] 	hdistance[36] 	3.3693057656749
scalar tree_4_3_u02_r7_network.client[36] 	downloads[36] 	11898
scalar tree_4_3_u02_r7_network.client[36] 	avg_time[36] 	0.005053610628
scalar tree_4_3_u02_r7_network.client[37] 	hdistance[37] 	3.3706151499746
scalar tree_4_3_u02_r7_network.client[37] 	downloads[37] 	11802
scalar tree_4_3_u02_r7_network.client[37] 	avg_time[37] 	0.005055829884
scalar tree_4_3_u02_r7_network.client[38] 	hdistance[38] 	3.3618280453723
scalar tree_4_3_u02_r7_network.client[38] 	downloads[38] 	12166
scalar tree_4_3_u02_r7_network.client[38] 	avg_time[38] 	0.005042245547
scalar tree_4_3_u02_r7_network.client[39] 	hdistance[39] 	3.3858477970628
scalar tree_4_3_u02_r7_network.client[39] 	downloads[39] 	11984
scalar tree_4_3_u02_r7_network.client[39] 	avg_time[39] 	0.005078291226
