version 2
run General-54-20160818-21:43:38-32642
attr a 0.9
attr cd lce
attr configname General
attr cr lru
attr datetime 20160818-21:43:38
attr experiment General
attr fsize 1
attr inifile hw5115/scenario_A/Edge.ini
attr iterationvars "$name=tree_4_3, $un=02, $rep=15, $scenario=Edge, $cd=lce, $cr=lru, $fsize=1, $a=0.9, $sl=spr, $ttl=1000, $variance=0.05"
attr iterationvars2 "$name=tree_4_3, $un=02, $rep=15, $scenario=Edge, $cd=lce, $cr=lru, $fsize=1, $a=0.9, $sl=spr, $ttl=1000, $variance=0.05, $repetition=0"
attr measurement "$name=tree_4_3, $un=02, $rep=15, $scenario=Edge, $cd=lce, $cr=lru, $fsize=1, $a=0.9, $sl=spr, $ttl=1000, $variance=0.05"
attr name tree_4_3
attr network networks.${name}_u${un}_r${rep}_network
attr processid 32642
attr rep 15
attr repetition 0
attr replication #0
attr resultdir results
attr runnumber 54
attr scenario Edge
attr seedset 15
attr sl spr
attr ttl 1000
attr un 02
attr variance 0.05

scalar . 	a 	0.9
scalar . 	fsize 	1
scalar . 	rep 	15
scalar . 	ttl 	1000
scalar . 	un 	02
scalar . 	variance 	0.05
scalar tree_4_3_u02_r15_network.content_distribution 	repo-0 	0
scalar tree_4_3_u02_r15_network.content_distribution 	client-0 	13
scalar tree_4_3_u02_r15_network.content_distribution 	client-1 	14
scalar tree_4_3_u02_r15_network.content_distribution 	client-2 	15
scalar tree_4_3_u02_r15_network.content_distribution 	client-3 	16
scalar tree_4_3_u02_r15_network.content_distribution 	client-4 	17
scalar tree_4_3_u02_r15_network.content_distribution 	client-5 	18
scalar tree_4_3_u02_r15_network.content_distribution 	client-6 	19
scalar tree_4_3_u02_r15_network.content_distribution 	client-7 	20
scalar tree_4_3_u02_r15_network.content_distribution 	client-8 	21
scalar tree_4_3_u02_r15_network.content_distribution 	client-9 	22
scalar tree_4_3_u02_r15_network.content_distribution 	client-10 	23
scalar tree_4_3_u02_r15_network.content_distribution 	client-11 	24
scalar tree_4_3_u02_r15_network.content_distribution 	client-12 	25
scalar tree_4_3_u02_r15_network.content_distribution 	client-13 	26
scalar tree_4_3_u02_r15_network.content_distribution 	client-14 	27
scalar tree_4_3_u02_r15_network.content_distribution 	client-15 	28
scalar tree_4_3_u02_r15_network.content_distribution 	client-16 	29
scalar tree_4_3_u02_r15_network.content_distribution 	client-17 	30
scalar tree_4_3_u02_r15_network.content_distribution 	client-18 	31
scalar tree_4_3_u02_r15_network.content_distribution 	client-19 	32
scalar tree_4_3_u02_r15_network.content_distribution 	client-20 	33
scalar tree_4_3_u02_r15_network.content_distribution 	client-21 	34
scalar tree_4_3_u02_r15_network.content_distribution 	client-22 	35
scalar tree_4_3_u02_r15_network.content_distribution 	client-23 	36
scalar tree_4_3_u02_r15_network.content_distribution 	client-24 	37
scalar tree_4_3_u02_r15_network.content_distribution 	client-25 	38
scalar tree_4_3_u02_r15_network.content_distribution 	client-26 	39
scalar tree_4_3_u02_r15_network.content_distribution 	repo-0_card 	100000
scalar tree_4_3_u02_r15_network.content_distribution 	repo-0_price 	0
scalar tree_4_3_u02_r15_network.statistics 	stabilization_time 	422.7
scalar tree_4_3_u02_r15_network.statistics 	p_hit 	0.10528889264458
scalar tree_4_3_u02_r15_network.statistics 	interests 	28532.05
scalar tree_4_3_u02_r15_network.statistics 	data 	20453.05
scalar tree_4_3_u02_r15_network.statistics 	hdistance 	3.3760192606926
scalar tree_4_3_u02_r15_network.statistics 	avg_time 	0.00506363124
scalar tree_4_3_u02_r15_network.statistics 	downloads 	323135
scalar tree_4_3_u02_r15_network.statistics 	total_cost 	0
scalar tree_4_3_u02_r15_network.statistics 	total_replicas 	100000
scalar tree_4_3_u02_r15_network.statistics 	inner_hit 	0.15613288563603
scalar tree_4_3_u02_r15_network.node[0].core_layer 	interests[0] 	272683
scalar tree_4_3_u02_r15_network.node[0].core_layer 	repo_load[0] 	272683
scalar tree_4_3_u02_r15_network.node[0].core_layer 	data[0] 	0
scalar tree_4_3_u02_r15_network.node[0].core_layer 	repo_int[0] 	272683
scalar tree_4_3_u02_r15_network.node[0].content_store 	p_hit[0] 	0
scalar tree_4_3_u02_r15_network.node[0].content_store 	hits[0] 	0
scalar tree_4_3_u02_r15_network.node[0].content_store 	misses[0] 	272683
scalar tree_4_3_u02_r15_network.node[0].content_store 	decision_yes[0] 	0
scalar tree_4_3_u02_r15_network.node[0].content_store 	decision_no[0] 	272683
scalar tree_4_3_u02_r15_network.node[0].content_store 	decision_ratio[0] 	0
scalar tree_4_3_u02_r15_network.node[1].core_layer 	interests[1] 	120845
scalar tree_4_3_u02_r15_network.node[1].core_layer 	data[1] 	120829
scalar tree_4_3_u02_r15_network.node[1].content_store 	p_hit[1] 	0
scalar tree_4_3_u02_r15_network.node[1].content_store 	hits[1] 	0
scalar tree_4_3_u02_r15_network.node[1].content_store 	misses[1] 	120845
scalar tree_4_3_u02_r15_network.node[1].content_store 	decision_yes[1] 	0
scalar tree_4_3_u02_r15_network.node[1].content_store 	decision_no[1] 	120829
scalar tree_4_3_u02_r15_network.node[1].content_store 	decision_ratio[1] 	0
scalar tree_4_3_u02_r15_network.node[2].core_layer 	interests[2] 	60724
scalar tree_4_3_u02_r15_network.node[2].core_layer 	data[2] 	60722
scalar tree_4_3_u02_r15_network.node[2].content_store 	p_hit[2] 	0
scalar tree_4_3_u02_r15_network.node[2].content_store 	hits[2] 	0
scalar tree_4_3_u02_r15_network.node[2].content_store 	misses[2] 	60724
scalar tree_4_3_u02_r15_network.node[2].content_store 	decision_yes[2] 	0
scalar tree_4_3_u02_r15_network.node[2].content_store 	decision_no[2] 	60722
scalar tree_4_3_u02_r15_network.node[2].content_store 	decision_ratio[2] 	0
scalar tree_4_3_u02_r15_network.node[3].core_layer 	interests[3] 	91141
scalar tree_4_3_u02_r15_network.node[3].core_layer 	data[3] 	91132
scalar tree_4_3_u02_r15_network.node[3].content_store 	p_hit[3] 	0
scalar tree_4_3_u02_r15_network.node[3].content_store 	hits[3] 	0
scalar tree_4_3_u02_r15_network.node[3].content_store 	misses[3] 	91141
scalar tree_4_3_u02_r15_network.node[3].content_store 	decision_yes[3] 	0
scalar tree_4_3_u02_r15_network.node[3].content_store 	decision_no[3] 	91132
scalar tree_4_3_u02_r15_network.node[3].content_store 	decision_ratio[3] 	0
scalar tree_4_3_u02_r15_network.node[4].core_layer 	interests[4] 	30394
scalar tree_4_3_u02_r15_network.node[4].core_layer 	data[4] 	30392
scalar tree_4_3_u02_r15_network.node[4].content_store 	p_hit[4] 	0
scalar tree_4_3_u02_r15_network.node[4].content_store 	hits[4] 	0
scalar tree_4_3_u02_r15_network.node[4].content_store 	misses[4] 	30394
scalar tree_4_3_u02_r15_network.node[4].content_store 	decision_yes[4] 	0
scalar tree_4_3_u02_r15_network.node[4].content_store 	decision_no[4] 	30392
scalar tree_4_3_u02_r15_network.node[4].content_store 	decision_ratio[4] 	0
scalar tree_4_3_u02_r15_network.node[5].core_layer 	interests[5] 	30246
scalar tree_4_3_u02_r15_network.node[5].core_layer 	data[5] 	30245
scalar tree_4_3_u02_r15_network.node[5].content_store 	p_hit[5] 	0
scalar tree_4_3_u02_r15_network.node[5].content_store 	hits[5] 	0
scalar tree_4_3_u02_r15_network.node[5].content_store 	misses[5] 	30246
scalar tree_4_3_u02_r15_network.node[5].content_store 	decision_yes[5] 	0
scalar tree_4_3_u02_r15_network.node[5].content_store 	decision_no[5] 	30245
scalar tree_4_3_u02_r15_network.node[5].content_store 	decision_ratio[5] 	0
scalar tree_4_3_u02_r15_network.node[6].core_layer 	interests[6] 	30245
scalar tree_4_3_u02_r15_network.node[6].core_layer 	data[6] 	30243
scalar tree_4_3_u02_r15_network.node[6].content_store 	p_hit[6] 	0
scalar tree_4_3_u02_r15_network.node[6].content_store 	hits[6] 	0
scalar tree_4_3_u02_r15_network.node[6].content_store 	misses[6] 	30245
scalar tree_4_3_u02_r15_network.node[6].content_store 	decision_yes[6] 	0
scalar tree_4_3_u02_r15_network.node[6].content_store 	decision_no[6] 	30243
scalar tree_4_3_u02_r15_network.node[6].content_store 	decision_ratio[6] 	0
scalar tree_4_3_u02_r15_network.node[7].core_layer 	interests[7] 	29967
scalar tree_4_3_u02_r15_network.node[7].core_layer 	data[7] 	29965
scalar tree_4_3_u02_r15_network.node[7].content_store 	p_hit[7] 	0
scalar tree_4_3_u02_r15_network.node[7].content_store 	hits[7] 	0
scalar tree_4_3_u02_r15_network.node[7].content_store 	misses[7] 	29967
scalar tree_4_3_u02_r15_network.node[7].content_store 	decision_yes[7] 	0
scalar tree_4_3_u02_r15_network.node[7].content_store 	decision_no[7] 	29965
scalar tree_4_3_u02_r15_network.node[7].content_store 	decision_ratio[7] 	0
scalar tree_4_3_u02_r15_network.node[8].core_layer 	interests[8] 	30233
scalar tree_4_3_u02_r15_network.node[8].core_layer 	data[8] 	30230
scalar tree_4_3_u02_r15_network.node[8].content_store 	p_hit[8] 	0
scalar tree_4_3_u02_r15_network.node[8].content_store 	hits[8] 	0
scalar tree_4_3_u02_r15_network.node[8].content_store 	misses[8] 	30233
scalar tree_4_3_u02_r15_network.node[8].content_store 	decision_yes[8] 	0
scalar tree_4_3_u02_r15_network.node[8].content_store 	decision_no[8] 	30230
scalar tree_4_3_u02_r15_network.node[8].content_store 	decision_ratio[8] 	0
scalar tree_4_3_u02_r15_network.node[9].core_layer 	interests[9] 	30496
scalar tree_4_3_u02_r15_network.node[9].core_layer 	data[9] 	30493
scalar tree_4_3_u02_r15_network.node[9].content_store 	p_hit[9] 	0
scalar tree_4_3_u02_r15_network.node[9].content_store 	hits[9] 	0
scalar tree_4_3_u02_r15_network.node[9].content_store 	misses[9] 	30496
scalar tree_4_3_u02_r15_network.node[9].content_store 	decision_yes[9] 	0
scalar tree_4_3_u02_r15_network.node[9].content_store 	decision_no[9] 	30493
scalar tree_4_3_u02_r15_network.node[9].content_store 	decision_ratio[9] 	0
scalar tree_4_3_u02_r15_network.node[10].core_layer 	interests[10] 	40523
scalar tree_4_3_u02_r15_network.node[10].core_layer 	data[10] 	40519
scalar tree_4_3_u02_r15_network.node[10].content_store 	p_hit[10] 	0
scalar tree_4_3_u02_r15_network.node[10].content_store 	hits[10] 	0
scalar tree_4_3_u02_r15_network.node[10].content_store 	misses[10] 	40523
scalar tree_4_3_u02_r15_network.node[10].content_store 	decision_yes[10] 	0
scalar tree_4_3_u02_r15_network.node[10].content_store 	decision_no[10] 	40519
scalar tree_4_3_u02_r15_network.node[10].content_store 	decision_ratio[10] 	0
scalar tree_4_3_u02_r15_network.node[11].core_layer 	interests[11] 	30535
scalar tree_4_3_u02_r15_network.node[11].core_layer 	data[11] 	30533
scalar tree_4_3_u02_r15_network.node[11].content_store 	p_hit[11] 	0
scalar tree_4_3_u02_r15_network.node[11].content_store 	hits[11] 	0
scalar tree_4_3_u02_r15_network.node[11].content_store 	misses[11] 	30535
scalar tree_4_3_u02_r15_network.node[11].content_store 	decision_yes[11] 	0
scalar tree_4_3_u02_r15_network.node[11].content_store 	decision_no[11] 	30533
scalar tree_4_3_u02_r15_network.node[11].content_store 	decision_ratio[11] 	0
scalar tree_4_3_u02_r15_network.node[12].core_layer 	interests[12] 	20091
scalar tree_4_3_u02_r15_network.node[12].core_layer 	data[12] 	20089
scalar tree_4_3_u02_r15_network.node[12].content_store 	p_hit[12] 	0
scalar tree_4_3_u02_r15_network.node[12].content_store 	hits[12] 	0
scalar tree_4_3_u02_r15_network.node[12].content_store 	misses[12] 	20091
scalar tree_4_3_u02_r15_network.node[12].content_store 	decision_yes[12] 	0
scalar tree_4_3_u02_r15_network.node[12].content_store 	decision_no[12] 	20089
scalar tree_4_3_u02_r15_network.node[12].content_store 	decision_ratio[12] 	0
scalar tree_4_3_u02_r15_network.node[13].core_layer 	interests[13] 	12107
scalar tree_4_3_u02_r15_network.node[13].core_layer 	data[13] 	10183
scalar tree_4_3_u02_r15_network.node[13].content_store 	p_hit[13] 	0.15875113570662
scalar tree_4_3_u02_r15_network.node[13].content_store 	hits[13] 	1922
scalar tree_4_3_u02_r15_network.node[13].content_store 	misses[13] 	10185
scalar tree_4_3_u02_r15_network.node[13].content_store 	decision_yes[13] 	10183
scalar tree_4_3_u02_r15_network.node[13].content_store 	decision_no[13] 	0
scalar tree_4_3_u02_r15_network.node[13].content_store 	decision_ratio[13] 	1
scalar tree_4_3_u02_r15_network.node[14].core_layer 	interests[14] 	12001
scalar tree_4_3_u02_r15_network.node[14].core_layer 	data[14] 	10090
scalar tree_4_3_u02_r15_network.node[14].content_store 	p_hit[14] 	0.15907007749354
scalar tree_4_3_u02_r15_network.node[14].content_store 	hits[14] 	1909
scalar tree_4_3_u02_r15_network.node[14].content_store 	misses[14] 	10092
scalar tree_4_3_u02_r15_network.node[14].content_store 	decision_yes[14] 	10090
scalar tree_4_3_u02_r15_network.node[14].content_store 	decision_no[14] 	0
scalar tree_4_3_u02_r15_network.node[14].content_store 	decision_ratio[14] 	1
scalar tree_4_3_u02_r15_network.node[15].core_layer 	interests[15] 	12010
scalar tree_4_3_u02_r15_network.node[15].core_layer 	data[15] 	10121
scalar tree_4_3_u02_r15_network.node[15].content_store 	p_hit[15] 	0.15728559533722
scalar tree_4_3_u02_r15_network.node[15].content_store 	hits[15] 	1889
scalar tree_4_3_u02_r15_network.node[15].content_store 	misses[15] 	10121
scalar tree_4_3_u02_r15_network.node[15].content_store 	decision_yes[15] 	10121
scalar tree_4_3_u02_r15_network.node[15].content_store 	decision_no[15] 	0
scalar tree_4_3_u02_r15_network.node[15].content_store 	decision_ratio[15] 	1
scalar tree_4_3_u02_r15_network.node[16].core_layer 	interests[16] 	11932
scalar tree_4_3_u02_r15_network.node[16].core_layer 	data[16] 	10093
scalar tree_4_3_u02_r15_network.node[16].content_store 	p_hit[16] 	0.15412336573919
scalar tree_4_3_u02_r15_network.node[16].content_store 	hits[16] 	1839
scalar tree_4_3_u02_r15_network.node[16].content_store 	misses[16] 	10093
scalar tree_4_3_u02_r15_network.node[16].content_store 	decision_yes[16] 	10093
scalar tree_4_3_u02_r15_network.node[16].content_store 	decision_no[16] 	0
scalar tree_4_3_u02_r15_network.node[16].content_store 	decision_ratio[16] 	1
scalar tree_4_3_u02_r15_network.node[17].core_layer 	interests[17] 	11936
scalar tree_4_3_u02_r15_network.node[17].core_layer 	data[17] 	10076
scalar tree_4_3_u02_r15_network.node[17].content_store 	p_hit[17] 	0.15583109919571
scalar tree_4_3_u02_r15_network.node[17].content_store 	hits[17] 	1860
scalar tree_4_3_u02_r15_network.node[17].content_store 	misses[17] 	10076
scalar tree_4_3_u02_r15_network.node[17].content_store 	decision_yes[17] 	10076
scalar tree_4_3_u02_r15_network.node[17].content_store 	decision_no[17] 	0
scalar tree_4_3_u02_r15_network.node[17].content_store 	decision_ratio[17] 	1
scalar tree_4_3_u02_r15_network.node[18].core_layer 	interests[18] 	11976
scalar tree_4_3_u02_r15_network.node[18].core_layer 	data[18] 	10077
scalar tree_4_3_u02_r15_network.node[18].content_store 	p_hit[18] 	0.15840013360053
scalar tree_4_3_u02_r15_network.node[18].content_store 	hits[18] 	1897
scalar tree_4_3_u02_r15_network.node[18].content_store 	misses[18] 	10079
scalar tree_4_3_u02_r15_network.node[18].content_store 	decision_yes[18] 	10077
scalar tree_4_3_u02_r15_network.node[18].content_store 	decision_no[18] 	0
scalar tree_4_3_u02_r15_network.node[18].content_store 	decision_ratio[18] 	1
scalar tree_4_3_u02_r15_network.node[19].core_layer 	interests[19] 	11998
scalar tree_4_3_u02_r15_network.node[19].core_layer 	data[19] 	10086
scalar tree_4_3_u02_r15_network.node[19].content_store 	p_hit[19] 	0.15927654609102
scalar tree_4_3_u02_r15_network.node[19].content_store 	hits[19] 	1911
scalar tree_4_3_u02_r15_network.node[19].content_store 	misses[19] 	10087
scalar tree_4_3_u02_r15_network.node[19].content_store 	decision_yes[19] 	10086
scalar tree_4_3_u02_r15_network.node[19].content_store 	decision_no[19] 	0
scalar tree_4_3_u02_r15_network.node[19].content_store 	decision_ratio[19] 	1
scalar tree_4_3_u02_r15_network.node[20].core_layer 	interests[20] 	11824
scalar tree_4_3_u02_r15_network.node[20].core_layer 	data[20] 	10001
scalar tree_4_3_u02_r15_network.node[20].content_store 	p_hit[20] 	0.15417794316644
scalar tree_4_3_u02_r15_network.node[20].content_store 	hits[20] 	1823
scalar tree_4_3_u02_r15_network.node[20].content_store 	misses[20] 	10001
scalar tree_4_3_u02_r15_network.node[20].content_store 	decision_yes[20] 	10001
scalar tree_4_3_u02_r15_network.node[20].content_store 	decision_no[20] 	0
scalar tree_4_3_u02_r15_network.node[20].content_store 	decision_ratio[20] 	1
scalar tree_4_3_u02_r15_network.node[21].core_layer 	interests[21] 	12029
scalar tree_4_3_u02_r15_network.node[21].core_layer 	data[21] 	10158
scalar tree_4_3_u02_r15_network.node[21].content_store 	p_hit[21] 	0.15537451159697
scalar tree_4_3_u02_r15_network.node[21].content_store 	hits[21] 	1869
scalar tree_4_3_u02_r15_network.node[21].content_store 	misses[21] 	10160
scalar tree_4_3_u02_r15_network.node[21].content_store 	decision_yes[21] 	10158
scalar tree_4_3_u02_r15_network.node[21].content_store 	decision_no[21] 	0
scalar tree_4_3_u02_r15_network.node[21].content_store 	decision_ratio[21] 	1
scalar tree_4_3_u02_r15_network.node[22].core_layer 	interests[22] 	11921
scalar tree_4_3_u02_r15_network.node[22].core_layer 	data[22] 	10045
scalar tree_4_3_u02_r15_network.node[22].content_store 	p_hit[22] 	0.15736934820904
scalar tree_4_3_u02_r15_network.node[22].content_store 	hits[22] 	1876
scalar tree_4_3_u02_r15_network.node[22].content_store 	misses[22] 	10045
scalar tree_4_3_u02_r15_network.node[22].content_store 	decision_yes[22] 	10045
scalar tree_4_3_u02_r15_network.node[22].content_store 	decision_no[22] 	0
scalar tree_4_3_u02_r15_network.node[22].content_store 	decision_ratio[22] 	1
scalar tree_4_3_u02_r15_network.node[23].core_layer 	interests[23] 	11791
scalar tree_4_3_u02_r15_network.node[23].core_layer 	data[23] 	9857
scalar tree_4_3_u02_r15_network.node[23].content_store 	p_hit[23] 	0.16393859723518
scalar tree_4_3_u02_r15_network.node[23].content_store 	hits[23] 	1933
scalar tree_4_3_u02_r15_network.node[23].content_store 	misses[23] 	9858
scalar tree_4_3_u02_r15_network.node[23].content_store 	decision_yes[23] 	9857
scalar tree_4_3_u02_r15_network.node[23].content_store 	decision_no[23] 	0
scalar tree_4_3_u02_r15_network.node[23].content_store 	decision_ratio[23] 	1
scalar tree_4_3_u02_r15_network.node[24].core_layer 	interests[24] 	11960
scalar tree_4_3_u02_r15_network.node[24].core_layer 	data[24] 	10065
scalar tree_4_3_u02_r15_network.node[24].content_store 	p_hit[24] 	0.15836120401338
scalar tree_4_3_u02_r15_network.node[24].content_store 	hits[24] 	1894
scalar tree_4_3_u02_r15_network.node[24].content_store 	misses[24] 	10066
scalar tree_4_3_u02_r15_network.node[24].content_store 	decision_yes[24] 	10065
scalar tree_4_3_u02_r15_network.node[24].content_store 	decision_no[24] 	0
scalar tree_4_3_u02_r15_network.node[24].content_store 	decision_ratio[24] 	1
scalar tree_4_3_u02_r15_network.node[25].core_layer 	interests[25] 	11985
scalar tree_4_3_u02_r15_network.node[25].core_layer 	data[25] 	10180
scalar tree_4_3_u02_r15_network.node[25].content_store 	p_hit[25] 	0.15052148518982
scalar tree_4_3_u02_r15_network.node[25].content_store 	hits[25] 	1804
scalar tree_4_3_u02_r15_network.node[25].content_store 	misses[25] 	10181
scalar tree_4_3_u02_r15_network.node[25].content_store 	decision_yes[25] 	10180
scalar tree_4_3_u02_r15_network.node[25].content_store 	decision_no[25] 	0
scalar tree_4_3_u02_r15_network.node[25].content_store 	decision_ratio[25] 	1
scalar tree_4_3_u02_r15_network.node[26].core_layer 	interests[26] 	11961
scalar tree_4_3_u02_r15_network.node[26].core_layer 	data[26] 	10058
scalar tree_4_3_u02_r15_network.node[26].content_store 	p_hit[26] 	0.15893319956525
scalar tree_4_3_u02_r15_network.node[26].content_store 	hits[26] 	1901
scalar tree_4_3_u02_r15_network.node[26].content_store 	misses[26] 	10060
scalar tree_4_3_u02_r15_network.node[26].content_store 	decision_yes[26] 	10058
scalar tree_4_3_u02_r15_network.node[26].content_store 	decision_no[26] 	0
scalar tree_4_3_u02_r15_network.node[26].content_store 	decision_ratio[26] 	1
scalar tree_4_3_u02_r15_network.node[27].core_layer 	interests[27] 	11872
scalar tree_4_3_u02_r15_network.node[27].core_layer 	data[27] 	9994
scalar tree_4_3_u02_r15_network.node[27].content_store 	p_hit[27] 	0.15810309973046
scalar tree_4_3_u02_r15_network.node[27].content_store 	hits[27] 	1877
scalar tree_4_3_u02_r15_network.node[27].content_store 	misses[27] 	9995
scalar tree_4_3_u02_r15_network.node[27].content_store 	decision_yes[27] 	9994
scalar tree_4_3_u02_r15_network.node[27].content_store 	decision_no[27] 	0
scalar tree_4_3_u02_r15_network.node[27].content_store 	decision_ratio[27] 	1
scalar tree_4_3_u02_r15_network.node[28].core_layer 	interests[28] 	12021
scalar tree_4_3_u02_r15_network.node[28].core_layer 	data[28] 	10163
scalar tree_4_3_u02_r15_network.node[28].content_store 	p_hit[28] 	0.15456284834872
scalar tree_4_3_u02_r15_network.node[28].content_store 	hits[28] 	1858
scalar tree_4_3_u02_r15_network.node[28].content_store 	misses[28] 	10163
scalar tree_4_3_u02_r15_network.node[28].content_store 	decision_yes[28] 	10163
scalar tree_4_3_u02_r15_network.node[28].content_store 	decision_no[28] 	0
scalar tree_4_3_u02_r15_network.node[28].content_store 	decision_ratio[28] 	1
scalar tree_4_3_u02_r15_network.node[29].core_layer 	interests[29] 	12129
scalar tree_4_3_u02_r15_network.node[29].core_layer 	data[29] 	10265
scalar tree_4_3_u02_r15_network.node[29].content_store 	p_hit[29] 	0.15368125979058
scalar tree_4_3_u02_r15_network.node[29].content_store 	hits[29] 	1864
scalar tree_4_3_u02_r15_network.node[29].content_store 	misses[29] 	10265
scalar tree_4_3_u02_r15_network.node[29].content_store 	decision_yes[29] 	10265
scalar tree_4_3_u02_r15_network.node[29].content_store 	decision_no[29] 	0
scalar tree_4_3_u02_r15_network.node[29].content_store 	decision_ratio[29] 	1
scalar tree_4_3_u02_r15_network.node[30].core_layer 	interests[30] 	11888
scalar tree_4_3_u02_r15_network.node[30].core_layer 	data[30] 	10068
scalar tree_4_3_u02_r15_network.node[30].content_store 	p_hit[30] 	0.15284320323015
scalar tree_4_3_u02_r15_network.node[30].content_store 	hits[30] 	1817
scalar tree_4_3_u02_r15_network.node[30].content_store 	misses[30] 	10071
scalar tree_4_3_u02_r15_network.node[30].content_store 	decision_yes[30] 	10068
scalar tree_4_3_u02_r15_network.node[30].content_store 	decision_no[30] 	0
scalar tree_4_3_u02_r15_network.node[30].content_store 	decision_ratio[30] 	1
scalar tree_4_3_u02_r15_network.node[31].core_layer 	interests[31] 	12079
scalar tree_4_3_u02_r15_network.node[31].core_layer 	data[31] 	10205
scalar tree_4_3_u02_r15_network.node[31].content_store 	p_hit[31] 	0.15522808179485
scalar tree_4_3_u02_r15_network.node[31].content_store 	hits[31] 	1875
scalar tree_4_3_u02_r15_network.node[31].content_store 	misses[31] 	10204
scalar tree_4_3_u02_r15_network.node[31].content_store 	decision_yes[31] 	10205
scalar tree_4_3_u02_r15_network.node[31].content_store 	decision_no[31] 	0
scalar tree_4_3_u02_r15_network.node[31].content_store 	decision_ratio[31] 	1
scalar tree_4_3_u02_r15_network.node[32].core_layer 	interests[32] 	12039
scalar tree_4_3_u02_r15_network.node[32].core_layer 	data[32] 	10253
scalar tree_4_3_u02_r15_network.node[32].content_store 	p_hit[32] 	0.14835119195947
scalar tree_4_3_u02_r15_network.node[32].content_store 	hits[32] 	1786
scalar tree_4_3_u02_r15_network.node[32].content_store 	misses[32] 	10253
scalar tree_4_3_u02_r15_network.node[32].content_store 	decision_yes[32] 	10253
scalar tree_4_3_u02_r15_network.node[32].content_store 	decision_no[32] 	0
scalar tree_4_3_u02_r15_network.node[32].content_store 	decision_ratio[32] 	1
scalar tree_4_3_u02_r15_network.node[33].core_layer 	interests[33] 	11976
scalar tree_4_3_u02_r15_network.node[33].core_layer 	data[33] 	10063
scalar tree_4_3_u02_r15_network.node[33].content_store 	p_hit[33] 	0.15965263861055
scalar tree_4_3_u02_r15_network.node[33].content_store 	hits[33] 	1912
scalar tree_4_3_u02_r15_network.node[33].content_store 	misses[33] 	10064
scalar tree_4_3_u02_r15_network.node[33].content_store 	decision_yes[33] 	10063
scalar tree_4_3_u02_r15_network.node[33].content_store 	decision_no[33] 	0
scalar tree_4_3_u02_r15_network.node[33].content_store 	decision_ratio[33] 	1
scalar tree_4_3_u02_r15_network.node[34].core_layer 	interests[34] 	11978
scalar tree_4_3_u02_r15_network.node[34].core_layer 	data[34] 	10173
scalar tree_4_3_u02_r15_network.node[34].content_store 	p_hit[34] 	0.15060945065954
scalar tree_4_3_u02_r15_network.node[34].content_store 	hits[34] 	1804
scalar tree_4_3_u02_r15_network.node[34].content_store 	misses[34] 	10174
scalar tree_4_3_u02_r15_network.node[34].content_store 	decision_yes[34] 	10173
scalar tree_4_3_u02_r15_network.node[34].content_store 	decision_no[34] 	0
scalar tree_4_3_u02_r15_network.node[34].content_store 	decision_ratio[34] 	1
scalar tree_4_3_u02_r15_network.node[35].core_layer 	interests[35] 	11979
scalar tree_4_3_u02_r15_network.node[35].core_layer 	data[35] 	10109
scalar tree_4_3_u02_r15_network.node[35].content_store 	p_hit[35] 	0.15602304032056
scalar tree_4_3_u02_r15_network.node[35].content_store 	hits[35] 	1869
scalar tree_4_3_u02_r15_network.node[35].content_store 	misses[35] 	10110
scalar tree_4_3_u02_r15_network.node[35].content_store 	decision_yes[35] 	10109
scalar tree_4_3_u02_r15_network.node[35].content_store 	decision_no[35] 	0
scalar tree_4_3_u02_r15_network.node[35].content_store 	decision_ratio[35] 	1
scalar tree_4_3_u02_r15_network.node[36].core_layer 	interests[36] 	12012
scalar tree_4_3_u02_r15_network.node[36].core_layer 	data[36] 	10253
scalar tree_4_3_u02_r15_network.node[36].content_store 	p_hit[36] 	0.14635364635365
scalar tree_4_3_u02_r15_network.node[36].content_store 	hits[36] 	1758
scalar tree_4_3_u02_r15_network.node[36].content_store 	misses[36] 	10254
scalar tree_4_3_u02_r15_network.node[36].content_store 	decision_yes[36] 	10253
scalar tree_4_3_u02_r15_network.node[36].content_store 	decision_no[36] 	0
scalar tree_4_3_u02_r15_network.node[36].content_store 	decision_ratio[36] 	1
scalar tree_4_3_u02_r15_network.node[37].core_layer 	interests[37] 	11892
scalar tree_4_3_u02_r15_network.node[37].core_layer 	data[37] 	10003
scalar tree_4_3_u02_r15_network.node[37].content_store 	p_hit[37] 	0.15884628321561
scalar tree_4_3_u02_r15_network.node[37].content_store 	hits[37] 	1889
scalar tree_4_3_u02_r15_network.node[37].content_store 	misses[37] 	10003
scalar tree_4_3_u02_r15_network.node[37].content_store 	decision_yes[37] 	10003
scalar tree_4_3_u02_r15_network.node[37].content_store 	decision_no[37] 	0
scalar tree_4_3_u02_r15_network.node[37].content_store 	decision_ratio[37] 	1
scalar tree_4_3_u02_r15_network.node[38].core_layer 	interests[38] 	11931
scalar tree_4_3_u02_r15_network.node[38].core_layer 	data[38] 	10017
scalar tree_4_3_u02_r15_network.node[38].content_store 	p_hit[38] 	0.16033861369542
scalar tree_4_3_u02_r15_network.node[38].content_store 	hits[38] 	1913
scalar tree_4_3_u02_r15_network.node[38].content_store 	misses[38] 	10018
scalar tree_4_3_u02_r15_network.node[38].content_store 	decision_yes[38] 	10017
scalar tree_4_3_u02_r15_network.node[38].content_store 	decision_no[38] 	0
scalar tree_4_3_u02_r15_network.node[38].content_store 	decision_ratio[38] 	1
scalar tree_4_3_u02_r15_network.node[39].core_layer 	interests[39] 	11932
scalar tree_4_3_u02_r15_network.node[39].core_layer 	data[39] 	10074
scalar tree_4_3_u02_r15_network.node[39].content_store 	p_hit[39] 	0.15554810593362
scalar tree_4_3_u02_r15_network.node[39].content_store 	hits[39] 	1856
scalar tree_4_3_u02_r15_network.node[39].content_store 	misses[39] 	10076
scalar tree_4_3_u02_r15_network.node[39].content_store 	decision_yes[39] 	10074
scalar tree_4_3_u02_r15_network.node[39].content_store 	decision_no[39] 	0
scalar tree_4_3_u02_r15_network.node[39].content_store 	decision_ratio[39] 	1
scalar tree_4_3_u02_r15_network.client[13] 	hdistance[13] 	3.3648905410987
scalar tree_4_3_u02_r15_network.client[13] 	downloads[13] 	12105
scalar tree_4_3_u02_r15_network.client[13] 	avg_time[13] 	0.005046758705
scalar tree_4_3_u02_r15_network.client[14] 	hdistance[14] 	3.3636136344695
scalar tree_4_3_u02_r15_network.client[14] 	downloads[14] 	11999
scalar tree_4_3_u02_r15_network.client[14] 	avg_time[14] 	0.005044836376
scalar tree_4_3_u02_r15_network.client[15] 	hdistance[15] 	3.3708576186511
scalar tree_4_3_u02_r15_network.client[15] 	downloads[15] 	12010
scalar tree_4_3_u02_r15_network.client[15] 	avg_time[15] 	0.005056283401
scalar tree_4_3_u02_r15_network.client[16] 	hdistance[16] 	3.3835065370432
scalar tree_4_3_u02_r15_network.client[16] 	downloads[16] 	11932
scalar tree_4_3_u02_r15_network.client[16] 	avg_time[16] 	0.005074777954
scalar tree_4_3_u02_r15_network.client[17] 	hdistance[17] 	3.3766756032172
scalar tree_4_3_u02_r15_network.client[17] 	downloads[17] 	11936
scalar tree_4_3_u02_r15_network.client[17] 	avg_time[17] 	0.005064863171
scalar tree_4_3_u02_r15_network.client[18] 	hdistance[18] 	3.3662936362118
scalar tree_4_3_u02_r15_network.client[18] 	downloads[18] 	11974
scalar tree_4_3_u02_r15_network.client[18] 	avg_time[18] 	0.005048667152
scalar tree_4_3_u02_r15_network.client[19] 	hdistance[19] 	3.3628407101776
scalar tree_4_3_u02_r15_network.client[19] 	downloads[19] 	11997
scalar tree_4_3_u02_r15_network.client[19] 	avg_time[19] 	0.005043858044
scalar tree_4_3_u02_r15_network.client[20] 	hdistance[20] 	3.3832882273342
scalar tree_4_3_u02_r15_network.client[20] 	downloads[20] 	11824
scalar tree_4_3_u02_r15_network.client[20] 	avg_time[20] 	0.005074692825
scalar tree_4_3_u02_r15_network.client[21] 	hdistance[21] 	3.3783986031429
scalar tree_4_3_u02_r15_network.client[21] 	downloads[21] 	12027
scalar tree_4_3_u02_r15_network.client[21] 	avg_time[21] 	0.00506727387
scalar tree_4_3_u02_r15_network.client[22] 	hdistance[22] 	3.3705226071638
scalar tree_4_3_u02_r15_network.client[22] 	downloads[22] 	11921
scalar tree_4_3_u02_r15_network.client[22] 	avg_time[22] 	0.005055710549
scalar tree_4_3_u02_r15_network.client[23] 	hdistance[23] 	3.3441899915182
scalar tree_4_3_u02_r15_network.client[23] 	downloads[23] 	11790
scalar tree_4_3_u02_r15_network.client[23] 	avg_time[23] 	0.005015610078
scalar tree_4_3_u02_r15_network.client[24] 	hdistance[24] 	3.3665022159043
scalar tree_4_3_u02_r15_network.client[24] 	downloads[24] 	11959
scalar tree_4_3_u02_r15_network.client[24] 	avg_time[24] 	0.005049465546
scalar tree_4_3_u02_r15_network.client[25] 	hdistance[25] 	3.3978638184246
scalar tree_4_3_u02_r15_network.client[25] 	downloads[25] 	11984
scalar tree_4_3_u02_r15_network.client[25] 	avg_time[25] 	0.005095918676
scalar tree_4_3_u02_r15_network.client[26] 	hdistance[26] 	3.364160883017
scalar tree_4_3_u02_r15_network.client[26] 	downloads[26] 	11959
scalar tree_4_3_u02_r15_network.client[26] 	avg_time[26] 	0.005046110143
scalar tree_4_3_u02_r15_network.client[27] 	hdistance[27] 	3.3675343273524
scalar tree_4_3_u02_r15_network.client[27] 	downloads[27] 	11871
scalar tree_4_3_u02_r15_network.client[27] 	avg_time[27] 	0.005051150651
scalar tree_4_3_u02_r15_network.client[28] 	hdistance[28] 	3.3817486066051
scalar tree_4_3_u02_r15_network.client[28] 	downloads[28] 	12021
scalar tree_4_3_u02_r15_network.client[28] 	avg_time[28] 	0.005072237497
scalar tree_4_3_u02_r15_network.client[29] 	hdistance[29] 	3.3852749608377
scalar tree_4_3_u02_r15_network.client[29] 	downloads[29] 	12129
scalar tree_4_3_u02_r15_network.client[29] 	avg_time[29] 	0.005077909419
scalar tree_4_3_u02_r15_network.client[30] 	hdistance[30] 	3.3884728649558
scalar tree_4_3_u02_r15_network.client[30] 	downloads[30] 	11885
scalar tree_4_3_u02_r15_network.client[30] 	avg_time[30] 	0.005082339436
scalar tree_4_3_u02_r15_network.client[31] 	hdistance[31] 	3.3791390728477
scalar tree_4_3_u02_r15_network.client[31] 	downloads[31] 	12080
scalar tree_4_3_u02_r15_network.client[31] 	avg_time[31] 	0.005068568589
scalar tree_4_3_u02_r15_network.client[32] 	hdistance[32] 	3.4065952321621
scalar tree_4_3_u02_r15_network.client[32] 	downloads[32] 	12039
scalar tree_4_3_u02_r15_network.client[32] 	avg_time[32] 	0.005109578301
scalar tree_4_3_u02_r15_network.client[33] 	hdistance[33] 	3.3613361169102
scalar tree_4_3_u02_r15_network.client[33] 	downloads[33] 	11975
scalar tree_4_3_u02_r15_network.client[33] 	avg_time[33] 	0.005041320699
scalar tree_4_3_u02_r15_network.client[34] 	hdistance[34] 	3.3975118978041
scalar tree_4_3_u02_r15_network.client[34] 	downloads[34] 	11977
scalar tree_4_3_u02_r15_network.client[34] 	avg_time[34] 	0.005096057393
scalar tree_4_3_u02_r15_network.client[35] 	hdistance[35] 	3.3758557355151
scalar tree_4_3_u02_r15_network.client[35] 	downloads[35] 	11978
scalar tree_4_3_u02_r15_network.client[35] 	avg_time[35] 	0.005063095665
scalar tree_4_3_u02_r15_network.client[36] 	hdistance[36] 	3.4145366747148
scalar tree_4_3_u02_r15_network.client[36] 	downloads[36] 	12011
scalar tree_4_3_u02_r15_network.client[36] 	avg_time[36] 	0.005120985176
scalar tree_4_3_u02_r15_network.client[37] 	hdistance[37] 	3.3646148671376
scalar tree_4_3_u02_r15_network.client[37] 	downloads[37] 	11892
scalar tree_4_3_u02_r15_network.client[37] 	avg_time[37] 	0.005046919315
scalar tree_4_3_u02_r15_network.client[38] 	hdistance[38] 	3.3585917854149
scalar tree_4_3_u02_r15_network.client[38] 	downloads[38] 	11930
scalar tree_4_3_u02_r15_network.client[38] 	avg_time[38] 	0.005037119476
scalar tree_4_3_u02_r15_network.client[39] 	hdistance[39] 	3.3777032690696
scalar tree_4_3_u02_r15_network.client[39] 	downloads[39] 	11930
scalar tree_4_3_u02_r15_network.client[39] 	avg_time[39] 	0.005065935385
