version 2
run General-88-20160825-10:12:32-24543
attr D ffc0.05
attr F nrr
attr R lru
attr a 0.9
attr configname General
attr datetime 20160825-10:12:32
attr experiment General
attr inifile hw5115/scenario_C/omnetp.ini
attr iterationvars "$net=dtelecom, $rep=10, $a=0.9, $F=nrr, $D=ffc0.05, $R=lru, $window=60, $variance=0.05, $mytime=600"
attr iterationvars2 "$net=dtelecom, $rep=10, $a=0.9, $F=nrr, $D=ffc0.05, $R=lru, $window=60, $variance=0.05, $mytime=600, $repetition=0"
attr measurement "$net=dtelecom, $rep=10, $a=0.9, $F=nrr, $D=ffc0.05, $R=lru, $window=60, $variance=0.05, $mytime=600"
attr mytime 600
attr net dtelecom
attr network networks.${net=dtelecom}_network
attr processid 24543
attr rep 10
attr repetition 0
attr replication #0
attr resultdir results
attr runnumber 88
attr seedset 10
attr variance 0.05
attr window 60

scalar . 	a 	0.9
scalar . 	mytime 	600
scalar . 	rep 	10
scalar . 	variance 	0.05
scalar . 	window 	60
scalar dtelecom_network.content_distribution 	repo-0 	16
scalar dtelecom_network.content_distribution 	repo-1 	23
scalar dtelecom_network.content_distribution 	repo-2 	58
scalar dtelecom_network.content_distribution 	repo-3 	28
scalar dtelecom_network.content_distribution 	repo-4 	42
scalar dtelecom_network.content_distribution 	repo-5 	46
scalar dtelecom_network.content_distribution 	repo-6 	6
scalar dtelecom_network.content_distribution 	repo-7 	18
scalar dtelecom_network.content_distribution 	repo-8 	25
scalar dtelecom_network.content_distribution 	repo-9 	10
scalar dtelecom_network.content_distribution 	repo-10 	44
scalar dtelecom_network.content_distribution 	repo-11 	54
scalar dtelecom_network.content_distribution 	repo-12 	24
scalar dtelecom_network.content_distribution 	repo-13 	31
scalar dtelecom_network.content_distribution 	repo-14 	65
scalar dtelecom_network.content_distribution 	repo-15 	27
scalar dtelecom_network.content_distribution 	client-0 	46
scalar dtelecom_network.content_distribution 	client-1 	30
scalar dtelecom_network.content_distribution 	client-2 	8
scalar dtelecom_network.content_distribution 	client-3 	49
scalar dtelecom_network.content_distribution 	client-4 	66
scalar dtelecom_network.content_distribution 	client-5 	58
scalar dtelecom_network.content_distribution 	client-6 	32
scalar dtelecom_network.content_distribution 	client-7 	40
scalar dtelecom_network.content_distribution 	client-8 	42
scalar dtelecom_network.content_distribution 	client-9 	45
scalar dtelecom_network.content_distribution 	client-10 	33
scalar dtelecom_network.content_distribution 	client-11 	28
scalar dtelecom_network.content_distribution 	client-12 	3
scalar dtelecom_network.content_distribution 	client-13 	57
scalar dtelecom_network.content_distribution 	client-14 	50
scalar dtelecom_network.content_distribution 	client-15 	17
scalar dtelecom_network.content_distribution 	client-16 	59
scalar dtelecom_network.content_distribution 	client-17 	48
scalar dtelecom_network.content_distribution 	client-18 	23
scalar dtelecom_network.content_distribution 	client-19 	22
scalar dtelecom_network.content_distribution 	client-20 	67
scalar dtelecom_network.content_distribution 	client-21 	62
scalar dtelecom_network.content_distribution 	client-22 	56
scalar dtelecom_network.content_distribution 	client-23 	55
scalar dtelecom_network.content_distribution 	client-24 	53
scalar dtelecom_network.content_distribution 	client-25 	36
scalar dtelecom_network.content_distribution 	client-26 	51
scalar dtelecom_network.content_distribution 	client-27 	37
scalar dtelecom_network.content_distribution 	client-28 	54
scalar dtelecom_network.content_distribution 	client-29 	4
scalar dtelecom_network.content_distribution 	client-30 	31
scalar dtelecom_network.content_distribution 	client-31 	9
scalar dtelecom_network.content_distribution 	repo-0_card 	6240
scalar dtelecom_network.content_distribution 	repo-0_price 	0
scalar dtelecom_network.content_distribution 	repo-1_card 	6300
scalar dtelecom_network.content_distribution 	repo-1_price 	0
scalar dtelecom_network.content_distribution 	repo-2_card 	6351
scalar dtelecom_network.content_distribution 	repo-2_price 	0
scalar dtelecom_network.content_distribution 	repo-3_card 	6069
scalar dtelecom_network.content_distribution 	repo-3_price 	0
scalar dtelecom_network.content_distribution 	repo-4_card 	6322
scalar dtelecom_network.content_distribution 	repo-4_price 	0
scalar dtelecom_network.content_distribution 	repo-5_card 	6183
scalar dtelecom_network.content_distribution 	repo-5_price 	0
scalar dtelecom_network.content_distribution 	repo-6_card 	6236
scalar dtelecom_network.content_distribution 	repo-6_price 	0
scalar dtelecom_network.content_distribution 	repo-7_card 	6223
scalar dtelecom_network.content_distribution 	repo-7_price 	0
scalar dtelecom_network.content_distribution 	repo-8_card 	6295
scalar dtelecom_network.content_distribution 	repo-8_price 	0
scalar dtelecom_network.content_distribution 	repo-9_card 	6273
scalar dtelecom_network.content_distribution 	repo-9_price 	0
scalar dtelecom_network.content_distribution 	repo-10_card 	6196
scalar dtelecom_network.content_distribution 	repo-10_price 	0
scalar dtelecom_network.content_distribution 	repo-11_card 	6130
scalar dtelecom_network.content_distribution 	repo-11_price 	0
scalar dtelecom_network.content_distribution 	repo-12_card 	6287
scalar dtelecom_network.content_distribution 	repo-12_price 	0
scalar dtelecom_network.content_distribution 	repo-13_card 	6300
scalar dtelecom_network.content_distribution 	repo-13_price 	0
scalar dtelecom_network.content_distribution 	repo-14_card 	6333
scalar dtelecom_network.content_distribution 	repo-14_price 	0
scalar dtelecom_network.content_distribution 	repo-15_card 	6262
scalar dtelecom_network.content_distribution 	repo-15_price 	0
scalar dtelecom_network.statistics 	stabilization_time 	13959.3
scalar dtelecom_network.statistics 	p_hit 	0.29558554607591
scalar dtelecom_network.statistics 	interests 	12893.411764706
scalar dtelecom_network.statistics 	data 	7243.6911764706
scalar dtelecom_network.statistics 	hdistance 	1.7585716001001
scalar dtelecom_network.statistics 	avg_time 	0.020600942604
scalar dtelecom_network.statistics 	downloads 	384149
scalar dtelecom_network.statistics 	total_cost 	0
scalar dtelecom_network.statistics 	total_replicas 	100000
scalar dtelecom_network.statistics 	inner_hit 	0.52357548763631
scalar dtelecom_network.node[0].core_layer 	interests[0] 	2887
scalar dtelecom_network.node[0].core_layer 	data[0] 	1158
scalar dtelecom_network.node[0].core_layer 	repo_int[0] 	183018
scalar dtelecom_network.node[0].content_store 	p_hit[0] 	0.59889158295809
scalar dtelecom_network.node[0].content_store 	hits[0] 	1729
scalar dtelecom_network.node[0].content_store 	misses[0] 	1158
scalar dtelecom_network.node[0].content_store 	decision_yes[0] 	4
scalar dtelecom_network.node[0].content_store 	decision_no[0] 	1154
scalar dtelecom_network.node[0].content_store 	decision_ratio[0] 	0.003454231433506
scalar dtelecom_network.node[1].core_layer 	interests[1] 	174627
scalar dtelecom_network.node[1].core_layer 	data[1] 	164945
scalar dtelecom_network.node[1].content_store 	p_hit[1] 	0.055375171078928
scalar dtelecom_network.node[1].content_store 	hits[1] 	9670
scalar dtelecom_network.node[1].content_store 	misses[1] 	164957
scalar dtelecom_network.node[1].content_store 	decision_yes[1] 	56
scalar dtelecom_network.node[1].content_store 	decision_no[1] 	164889
scalar dtelecom_network.node[1].content_store 	decision_ratio[1] 	0.00033950710843008
scalar dtelecom_network.node[2].core_layer 	interests[2] 	4094
scalar dtelecom_network.node[2].core_layer 	data[2] 	861
scalar dtelecom_network.node[2].content_store 	p_hit[2] 	0.78969223253542
scalar dtelecom_network.node[2].content_store 	hits[2] 	3233
scalar dtelecom_network.node[2].content_store 	misses[2] 	861
scalar dtelecom_network.node[2].content_store 	decision_yes[2] 	6
scalar dtelecom_network.node[2].content_store 	decision_no[2] 	855
scalar dtelecom_network.node[2].content_store 	decision_ratio[2] 	0.0069686411149826
scalar dtelecom_network.node[3].core_layer 	interests[3] 	21098
scalar dtelecom_network.node[3].core_layer 	data[3] 	8909
scalar dtelecom_network.node[3].content_store 	p_hit[3] 	0.57773248649161
scalar dtelecom_network.node[3].content_store 	hits[3] 	12189
scalar dtelecom_network.node[3].content_store 	misses[3] 	8909
scalar dtelecom_network.node[3].content_store 	decision_yes[3] 	9
scalar dtelecom_network.node[3].content_store 	decision_no[3] 	8900
scalar dtelecom_network.node[3].content_store 	decision_ratio[3] 	0.0010102143899428
scalar dtelecom_network.node[4].core_layer 	interests[4] 	52873
scalar dtelecom_network.node[4].core_layer 	data[4] 	39221
scalar dtelecom_network.node[4].content_store 	p_hit[4] 	0.25786318158606
scalar dtelecom_network.node[4].content_store 	hits[4] 	13634
scalar dtelecom_network.node[4].content_store 	misses[4] 	39239
scalar dtelecom_network.node[4].content_store 	decision_yes[4] 	47
scalar dtelecom_network.node[4].content_store 	decision_no[4] 	39174
scalar dtelecom_network.node[4].content_store 	decision_ratio[4] 	0.0011983376252518
scalar dtelecom_network.node[5].core_layer 	interests[5] 	0
scalar dtelecom_network.node[5].core_layer 	data[5] 	0
scalar dtelecom_network.node[5].content_store 	p_hit[5] 	-nan
scalar dtelecom_network.node[5].content_store 	hits[5] 	0
scalar dtelecom_network.node[5].content_store 	misses[5] 	0
scalar dtelecom_network.node[5].content_store 	decision_yes[5] 	0
scalar dtelecom_network.node[5].content_store 	decision_no[5] 	0
scalar dtelecom_network.node[5].content_store 	decision_ratio[5] 	0
scalar dtelecom_network.node[6].core_layer 	interests[6] 	14411
scalar dtelecom_network.node[6].core_layer 	repo_load[6] 	10657
scalar dtelecom_network.node[6].core_layer 	data[6] 	0
scalar dtelecom_network.node[6].content_store 	p_hit[6] 	0.26049545486087
scalar dtelecom_network.node[6].content_store 	hits[6] 	3754
scalar dtelecom_network.node[6].content_store 	misses[6] 	10657
scalar dtelecom_network.node[6].content_store 	decision_yes[6] 	19
scalar dtelecom_network.node[6].content_store 	decision_no[6] 	10638
scalar dtelecom_network.node[6].content_store 	decision_ratio[6] 	0.0017828657220606
scalar dtelecom_network.node[7].core_layer 	interests[7] 	0
scalar dtelecom_network.node[7].core_layer 	data[7] 	0
scalar dtelecom_network.node[7].content_store 	p_hit[7] 	-nan
scalar dtelecom_network.node[7].content_store 	hits[7] 	0
scalar dtelecom_network.node[7].content_store 	misses[7] 	0
scalar dtelecom_network.node[7].content_store 	decision_yes[7] 	0
scalar dtelecom_network.node[7].content_store 	decision_no[7] 	0
scalar dtelecom_network.node[7].content_store 	decision_ratio[7] 	0
scalar dtelecom_network.node[8].core_layer 	interests[8] 	13093
scalar dtelecom_network.node[8].core_layer 	data[8] 	8974
scalar dtelecom_network.node[8].content_store 	p_hit[8] 	0.31459558542733
scalar dtelecom_network.node[8].content_store 	hits[8] 	4119
scalar dtelecom_network.node[8].content_store 	misses[8] 	8974
scalar dtelecom_network.node[8].content_store 	decision_yes[8] 	16
scalar dtelecom_network.node[8].content_store 	decision_no[8] 	8958
scalar dtelecom_network.node[8].content_store 	decision_ratio[8] 	0.0017829284599955
scalar dtelecom_network.node[9].core_layer 	interests[9] 	14043
scalar dtelecom_network.node[9].core_layer 	data[9] 	9121
scalar dtelecom_network.node[9].content_store 	p_hit[9] 	0.35049490849534
scalar dtelecom_network.node[9].content_store 	hits[9] 	4922
scalar dtelecom_network.node[9].content_store 	misses[9] 	9121
scalar dtelecom_network.node[9].content_store 	decision_yes[9] 	8
scalar dtelecom_network.node[9].content_store 	decision_no[9] 	9113
scalar dtelecom_network.node[9].content_store 	decision_ratio[9] 	0.00087709680956036
scalar dtelecom_network.node[10].core_layer 	interests[10] 	13699
scalar dtelecom_network.node[10].core_layer 	repo_load[10] 	10992
scalar dtelecom_network.node[10].core_layer 	data[10] 	0
scalar dtelecom_network.node[10].content_store 	p_hit[10] 	0.19760566464705
scalar dtelecom_network.node[10].content_store 	hits[10] 	2707
scalar dtelecom_network.node[10].content_store 	misses[10] 	10992
scalar dtelecom_network.node[10].content_store 	decision_yes[10] 	25
scalar dtelecom_network.node[10].content_store 	decision_no[10] 	10967
scalar dtelecom_network.node[10].content_store 	decision_ratio[10] 	0.0022743813682678
scalar dtelecom_network.node[11].core_layer 	interests[11] 	0
scalar dtelecom_network.node[11].core_layer 	data[11] 	0
scalar dtelecom_network.node[11].content_store 	p_hit[11] 	-nan
scalar dtelecom_network.node[11].content_store 	hits[11] 	0
scalar dtelecom_network.node[11].content_store 	misses[11] 	0
scalar dtelecom_network.node[11].content_store 	decision_yes[11] 	0
scalar dtelecom_network.node[11].content_store 	decision_no[11] 	0
scalar dtelecom_network.node[11].content_store 	decision_ratio[11] 	0
scalar dtelecom_network.node[12].core_layer 	interests[12] 	0
scalar dtelecom_network.node[12].core_layer 	data[12] 	0
scalar dtelecom_network.node[12].content_store 	p_hit[12] 	-nan
scalar dtelecom_network.node[12].content_store 	hits[12] 	0
scalar dtelecom_network.node[12].content_store 	misses[12] 	0
scalar dtelecom_network.node[12].content_store 	decision_yes[12] 	0
scalar dtelecom_network.node[12].content_store 	decision_no[12] 	0
scalar dtelecom_network.node[12].content_store 	decision_ratio[12] 	0
scalar dtelecom_network.node[13].core_layer 	interests[13] 	0
scalar dtelecom_network.node[13].core_layer 	data[13] 	0
scalar dtelecom_network.node[13].content_store 	p_hit[13] 	-nan
scalar dtelecom_network.node[13].content_store 	hits[13] 	0
scalar dtelecom_network.node[13].content_store 	misses[13] 	0
scalar dtelecom_network.node[13].content_store 	decision_yes[13] 	0
scalar dtelecom_network.node[13].content_store 	decision_no[13] 	0
scalar dtelecom_network.node[13].content_store 	decision_ratio[13] 	0
scalar dtelecom_network.node[14].core_layer 	interests[14] 	0
scalar dtelecom_network.node[14].core_layer 	data[14] 	0
scalar dtelecom_network.node[14].content_store 	p_hit[14] 	-nan
scalar dtelecom_network.node[14].content_store 	hits[14] 	0
scalar dtelecom_network.node[14].content_store 	misses[14] 	0
scalar dtelecom_network.node[14].content_store 	decision_yes[14] 	0
scalar dtelecom_network.node[14].content_store 	decision_no[14] 	0
scalar dtelecom_network.node[14].content_store 	decision_ratio[14] 	0
scalar dtelecom_network.node[15].core_layer 	interests[15] 	0
scalar dtelecom_network.node[15].core_layer 	data[15] 	0
scalar dtelecom_network.node[15].content_store 	p_hit[15] 	-nan
scalar dtelecom_network.node[15].content_store 	hits[15] 	0
scalar dtelecom_network.node[15].content_store 	misses[15] 	0
scalar dtelecom_network.node[15].content_store 	decision_yes[15] 	0
scalar dtelecom_network.node[15].content_store 	decision_no[15] 	0
scalar dtelecom_network.node[15].content_store 	decision_ratio[15] 	0
scalar dtelecom_network.node[16].core_layer 	interests[16] 	13637
scalar dtelecom_network.node[16].core_layer 	repo_load[16] 	10797
scalar dtelecom_network.node[16].core_layer 	data[16] 	0
scalar dtelecom_network.node[16].content_store 	p_hit[16] 	0.20825694800909
scalar dtelecom_network.node[16].content_store 	hits[16] 	2840
scalar dtelecom_network.node[16].content_store 	misses[16] 	10797
scalar dtelecom_network.node[16].content_store 	decision_yes[16] 	29
scalar dtelecom_network.node[16].content_store 	decision_no[16] 	10768
scalar dtelecom_network.node[16].content_store 	decision_ratio[16] 	0.0026859312772066
scalar dtelecom_network.node[17].core_layer 	interests[17] 	13125
scalar dtelecom_network.node[17].core_layer 	data[17] 	8895
scalar dtelecom_network.node[17].content_store 	p_hit[17] 	0.32220952380952
scalar dtelecom_network.node[17].content_store 	hits[17] 	4229
scalar dtelecom_network.node[17].content_store 	misses[17] 	8896
scalar dtelecom_network.node[17].content_store 	decision_yes[17] 	12
scalar dtelecom_network.node[17].content_store 	decision_no[17] 	8883
scalar dtelecom_network.node[17].content_store 	decision_ratio[17] 	0.0013490725126476
scalar dtelecom_network.node[18].core_layer 	interests[18] 	12943
scalar dtelecom_network.node[18].core_layer 	repo_load[18] 	10831
scalar dtelecom_network.node[18].core_layer 	data[18] 	0
scalar dtelecom_network.node[18].content_store 	p_hit[18] 	0.1631770068763
scalar dtelecom_network.node[18].content_store 	hits[18] 	2112
scalar dtelecom_network.node[18].content_store 	misses[18] 	10831
scalar dtelecom_network.node[18].content_store 	decision_yes[18] 	19
scalar dtelecom_network.node[18].content_store 	decision_no[18] 	10812
scalar dtelecom_network.node[18].content_store 	decision_ratio[18] 	0.0017542239867048
scalar dtelecom_network.node[19].core_layer 	interests[19] 	0
scalar dtelecom_network.node[19].core_layer 	data[19] 	0
scalar dtelecom_network.node[19].content_store 	p_hit[19] 	-nan
scalar dtelecom_network.node[19].content_store 	hits[19] 	0
scalar dtelecom_network.node[19].content_store 	misses[19] 	0
scalar dtelecom_network.node[19].content_store 	decision_yes[19] 	0
scalar dtelecom_network.node[19].content_store 	decision_no[19] 	0
scalar dtelecom_network.node[19].content_store 	decision_ratio[19] 	0
scalar dtelecom_network.node[20].core_layer 	interests[20] 	0
scalar dtelecom_network.node[20].core_layer 	data[20] 	0
scalar dtelecom_network.node[20].content_store 	p_hit[20] 	-nan
scalar dtelecom_network.node[20].content_store 	hits[20] 	0
scalar dtelecom_network.node[20].content_store 	misses[20] 	0
scalar dtelecom_network.node[20].content_store 	decision_yes[20] 	0
scalar dtelecom_network.node[20].content_store 	decision_no[20] 	0
scalar dtelecom_network.node[20].content_store 	decision_ratio[20] 	0
scalar dtelecom_network.node[21].core_layer 	interests[21] 	0
scalar dtelecom_network.node[21].core_layer 	data[21] 	0
scalar dtelecom_network.node[21].content_store 	p_hit[21] 	-nan
scalar dtelecom_network.node[21].content_store 	hits[21] 	0
scalar dtelecom_network.node[21].content_store 	misses[21] 	0
scalar dtelecom_network.node[21].content_store 	decision_yes[21] 	0
scalar dtelecom_network.node[21].content_store 	decision_no[21] 	0
scalar dtelecom_network.node[21].content_store 	decision_ratio[21] 	0
scalar dtelecom_network.node[22].core_layer 	interests[22] 	12994
scalar dtelecom_network.node[22].core_layer 	data[22] 	8947
scalar dtelecom_network.node[22].content_store 	p_hit[22] 	0.31137448052948
scalar dtelecom_network.node[22].content_store 	hits[22] 	4046
scalar dtelecom_network.node[22].content_store 	misses[22] 	8948
scalar dtelecom_network.node[22].content_store 	decision_yes[22] 	7
scalar dtelecom_network.node[22].content_store 	decision_no[22] 	8940
scalar dtelecom_network.node[22].content_store 	decision_ratio[22] 	0.00078238515703588
scalar dtelecom_network.node[23].core_layer 	interests[23] 	37699
scalar dtelecom_network.node[23].core_layer 	repo_load[23] 	12691
scalar dtelecom_network.node[23].core_layer 	data[23] 	18246
scalar dtelecom_network.node[23].content_store 	p_hit[23] 	0.17936815300141
scalar dtelecom_network.node[23].content_store 	hits[23] 	6762
scalar dtelecom_network.node[23].content_store 	misses[23] 	30937
scalar dtelecom_network.node[23].content_store 	decision_yes[23] 	30
scalar dtelecom_network.node[23].content_store 	decision_no[23] 	30907
scalar dtelecom_network.node[23].content_store 	decision_ratio[23] 	0.00096971264182047
scalar dtelecom_network.node[24].core_layer 	interests[24] 	14281
scalar dtelecom_network.node[24].core_layer 	repo_load[24] 	11507
scalar dtelecom_network.node[24].core_layer 	data[24] 	0
scalar dtelecom_network.node[24].content_store 	p_hit[24] 	0.19424410055318
scalar dtelecom_network.node[24].content_store 	hits[24] 	2774
scalar dtelecom_network.node[24].content_store 	misses[24] 	11507
scalar dtelecom_network.node[24].content_store 	decision_yes[24] 	28
scalar dtelecom_network.node[24].content_store 	decision_no[24] 	11479
scalar dtelecom_network.node[24].content_store 	decision_ratio[24] 	0.0024333014686712
scalar dtelecom_network.node[25].core_layer 	interests[25] 	13294
scalar dtelecom_network.node[25].core_layer 	repo_load[25] 	11005
scalar dtelecom_network.node[25].core_layer 	data[25] 	0
scalar dtelecom_network.node[25].content_store 	p_hit[25] 	0.17218293967203
scalar dtelecom_network.node[25].content_store 	hits[25] 	2289
scalar dtelecom_network.node[25].content_store 	misses[25] 	11005
scalar dtelecom_network.node[25].content_store 	decision_yes[25] 	18
scalar dtelecom_network.node[25].content_store 	decision_no[25] 	10987
scalar dtelecom_network.node[25].content_store 	decision_ratio[25] 	0.0016356201726488
scalar dtelecom_network.node[26].core_layer 	interests[26] 	2993
scalar dtelecom_network.node[26].core_layer 	data[26] 	1708
scalar dtelecom_network.node[26].content_store 	p_hit[26] 	0.42933511526896
scalar dtelecom_network.node[26].content_store 	hits[26] 	1285
scalar dtelecom_network.node[26].content_store 	misses[26] 	1708
scalar dtelecom_network.node[26].content_store 	decision_yes[26] 	3
scalar dtelecom_network.node[26].content_store 	decision_no[26] 	1705
scalar dtelecom_network.node[26].content_store 	decision_ratio[26] 	0.0017564402810304
scalar dtelecom_network.node[27].core_layer 	interests[27] 	13343
scalar dtelecom_network.node[27].core_layer 	repo_load[27] 	10788
scalar dtelecom_network.node[27].core_layer 	data[27] 	0
scalar dtelecom_network.node[27].content_store 	p_hit[27] 	0.19148617252492
scalar dtelecom_network.node[27].content_store 	hits[27] 	2555
scalar dtelecom_network.node[27].content_store 	misses[27] 	10788
scalar dtelecom_network.node[27].content_store 	decision_yes[27] 	24
scalar dtelecom_network.node[27].content_store 	decision_no[27] 	10764
scalar dtelecom_network.node[27].content_store 	decision_ratio[27] 	0.0022246941045606
scalar dtelecom_network.node[28].core_layer 	interests[28] 	25392
scalar dtelecom_network.node[28].core_layer 	repo_load[28] 	11635
scalar dtelecom_network.node[28].core_layer 	data[28] 	8828
scalar dtelecom_network.node[28].content_store 	p_hit[28] 	0.19411625708885
scalar dtelecom_network.node[28].content_store 	hits[28] 	4929
scalar dtelecom_network.node[28].content_store 	misses[28] 	20463
scalar dtelecom_network.node[28].content_store 	decision_yes[28] 	27
scalar dtelecom_network.node[28].content_store 	decision_no[28] 	20436
scalar dtelecom_network.node[28].content_store 	decision_ratio[28] 	0.0013194546254215
scalar dtelecom_network.node[29].core_layer 	interests[29] 	0
scalar dtelecom_network.node[29].core_layer 	data[29] 	0
scalar dtelecom_network.node[29].content_store 	p_hit[29] 	-nan
scalar dtelecom_network.node[29].content_store 	hits[29] 	0
scalar dtelecom_network.node[29].content_store 	misses[29] 	0
scalar dtelecom_network.node[29].content_store 	decision_yes[29] 	0
scalar dtelecom_network.node[29].content_store 	decision_no[29] 	0
scalar dtelecom_network.node[29].content_store 	decision_ratio[29] 	0
scalar dtelecom_network.node[30].core_layer 	interests[30] 	12816
scalar dtelecom_network.node[30].core_layer 	data[30] 	8721
scalar dtelecom_network.node[30].content_store 	p_hit[30] 	0.31952247191011
scalar dtelecom_network.node[30].content_store 	hits[30] 	4095
scalar dtelecom_network.node[30].content_store 	misses[30] 	8721
scalar dtelecom_network.node[30].content_store 	decision_yes[30] 	11
scalar dtelecom_network.node[30].content_store 	decision_no[30] 	8710
scalar dtelecom_network.node[30].content_store 	decision_ratio[30] 	0.0012613232427474
scalar dtelecom_network.node[31].core_layer 	interests[31] 	25057
scalar dtelecom_network.node[31].core_layer 	repo_load[31] 	11837
scalar dtelecom_network.node[31].core_layer 	data[31] 	8643
scalar dtelecom_network.node[31].content_store 	p_hit[31] 	0.18266352715808
scalar dtelecom_network.node[31].content_store 	hits[31] 	4577
scalar dtelecom_network.node[31].content_store 	misses[31] 	20480
scalar dtelecom_network.node[31].content_store 	decision_yes[31] 	24
scalar dtelecom_network.node[31].content_store 	decision_no[31] 	20456
scalar dtelecom_network.node[31].content_store 	decision_ratio[31] 	0.001171875
scalar dtelecom_network.node[32].core_layer 	interests[32] 	12801
scalar dtelecom_network.node[32].core_layer 	data[32] 	8746
scalar dtelecom_network.node[32].content_store 	p_hit[32] 	0.31661588938364
scalar dtelecom_network.node[32].content_store 	hits[32] 	4053
scalar dtelecom_network.node[32].content_store 	misses[32] 	8748
scalar dtelecom_network.node[32].content_store 	decision_yes[32] 	7
scalar dtelecom_network.node[32].content_store 	decision_no[32] 	8739
scalar dtelecom_network.node[32].content_store 	decision_ratio[32] 	0.00080036588154585
scalar dtelecom_network.node[33].core_layer 	interests[33] 	13611
scalar dtelecom_network.node[33].core_layer 	data[33] 	8860
scalar dtelecom_network.node[33].content_store 	p_hit[33] 	0.3490559106605
scalar dtelecom_network.node[33].content_store 	hits[33] 	4751
scalar dtelecom_network.node[33].content_store 	misses[33] 	8860
scalar dtelecom_network.node[33].content_store 	decision_yes[33] 	7
scalar dtelecom_network.node[33].content_store 	decision_no[33] 	8853
scalar dtelecom_network.node[33].content_store 	decision_ratio[33] 	0.00079006772009029
scalar dtelecom_network.node[34].core_layer 	interests[34] 	0
scalar dtelecom_network.node[34].core_layer 	data[34] 	0
scalar dtelecom_network.node[34].content_store 	p_hit[34] 	-nan
scalar dtelecom_network.node[34].content_store 	hits[34] 	0
scalar dtelecom_network.node[34].content_store 	misses[34] 	0
scalar dtelecom_network.node[34].content_store 	decision_yes[34] 	0
scalar dtelecom_network.node[34].content_store 	decision_no[34] 	0
scalar dtelecom_network.node[34].content_store 	decision_ratio[34] 	0
scalar dtelecom_network.node[35].core_layer 	interests[35] 	0
scalar dtelecom_network.node[35].core_layer 	data[35] 	0
scalar dtelecom_network.node[35].content_store 	p_hit[35] 	-nan
scalar dtelecom_network.node[35].content_store 	hits[35] 	0
scalar dtelecom_network.node[35].content_store 	misses[35] 	0
scalar dtelecom_network.node[35].content_store 	decision_yes[35] 	0
scalar dtelecom_network.node[35].content_store 	decision_no[35] 	0
scalar dtelecom_network.node[35].content_store 	decision_ratio[35] 	0
scalar dtelecom_network.node[36].core_layer 	interests[36] 	12954
scalar dtelecom_network.node[36].core_layer 	data[36] 	8797
scalar dtelecom_network.node[36].content_store 	p_hit[36] 	0.3209047398487
scalar dtelecom_network.node[36].content_store 	hits[36] 	4157
scalar dtelecom_network.node[36].content_store 	misses[36] 	8797
scalar dtelecom_network.node[36].content_store 	decision_yes[36] 	8
scalar dtelecom_network.node[36].content_store 	decision_no[36] 	8789
scalar dtelecom_network.node[36].content_store 	decision_ratio[36] 	0.00090940093213596
scalar dtelecom_network.node[37].core_layer 	interests[37] 	13431
scalar dtelecom_network.node[37].core_layer 	data[37] 	8892
scalar dtelecom_network.node[37].content_store 	p_hit[37] 	0.3379495197677
scalar dtelecom_network.node[37].content_store 	hits[37] 	4539
scalar dtelecom_network.node[37].content_store 	misses[37] 	8892
scalar dtelecom_network.node[37].content_store 	decision_yes[37] 	12
scalar dtelecom_network.node[37].content_store 	decision_no[37] 	8880
scalar dtelecom_network.node[37].content_store 	decision_ratio[37] 	0.0013495276653171
scalar dtelecom_network.node[38].core_layer 	interests[38] 	0
scalar dtelecom_network.node[38].core_layer 	data[38] 	0
scalar dtelecom_network.node[38].content_store 	p_hit[38] 	-nan
scalar dtelecom_network.node[38].content_store 	hits[38] 	0
scalar dtelecom_network.node[38].content_store 	misses[38] 	0
scalar dtelecom_network.node[38].content_store 	decision_yes[38] 	0
scalar dtelecom_network.node[38].content_store 	decision_no[38] 	0
scalar dtelecom_network.node[38].content_store 	decision_ratio[38] 	0
scalar dtelecom_network.node[39].core_layer 	interests[39] 	0
scalar dtelecom_network.node[39].core_layer 	data[39] 	0
scalar dtelecom_network.node[39].content_store 	p_hit[39] 	-nan
scalar dtelecom_network.node[39].content_store 	hits[39] 	0
scalar dtelecom_network.node[39].content_store 	misses[39] 	0
scalar dtelecom_network.node[39].content_store 	decision_yes[39] 	0
scalar dtelecom_network.node[39].content_store 	decision_no[39] 	0
scalar dtelecom_network.node[39].content_store 	decision_ratio[39] 	0
scalar dtelecom_network.node[40].core_layer 	interests[40] 	14283
scalar dtelecom_network.node[40].core_layer 	data[40] 	8925
scalar dtelecom_network.node[40].content_store 	p_hit[40] 	0.37506126163971
scalar dtelecom_network.node[40].content_store 	hits[40] 	5357
scalar dtelecom_network.node[40].content_store 	misses[40] 	8926
scalar dtelecom_network.node[40].content_store 	decision_yes[40] 	9
scalar dtelecom_network.node[40].content_store 	decision_no[40] 	8916
scalar dtelecom_network.node[40].content_store 	decision_ratio[40] 	0.0010084033613445
scalar dtelecom_network.node[41].core_layer 	interests[41] 	0
scalar dtelecom_network.node[41].core_layer 	data[41] 	0
scalar dtelecom_network.node[41].content_store 	p_hit[41] 	-nan
scalar dtelecom_network.node[41].content_store 	hits[41] 	0
scalar dtelecom_network.node[41].content_store 	misses[41] 	0
scalar dtelecom_network.node[41].content_store 	decision_yes[41] 	0
scalar dtelecom_network.node[41].content_store 	decision_no[41] 	0
scalar dtelecom_network.node[41].content_store 	decision_ratio[41] 	0
scalar dtelecom_network.node[42].core_layer 	interests[42] 	25097
scalar dtelecom_network.node[42].core_layer 	repo_load[42] 	11694
scalar dtelecom_network.node[42].core_layer 	data[42] 	8992
scalar dtelecom_network.node[42].content_store 	p_hit[42] 	0.17567836793242
scalar dtelecom_network.node[42].content_store 	hits[42] 	4409
scalar dtelecom_network.node[42].content_store 	misses[42] 	20688
scalar dtelecom_network.node[42].content_store 	decision_yes[42] 	22
scalar dtelecom_network.node[42].content_store 	decision_no[42] 	20664
scalar dtelecom_network.node[42].content_store 	decision_ratio[42] 	0.0010635212220826
scalar dtelecom_network.node[43].core_layer 	interests[43] 	0
scalar dtelecom_network.node[43].core_layer 	data[43] 	0
scalar dtelecom_network.node[43].content_store 	p_hit[43] 	-nan
scalar dtelecom_network.node[43].content_store 	hits[43] 	0
scalar dtelecom_network.node[43].content_store 	misses[43] 	0
scalar dtelecom_network.node[43].content_store 	decision_yes[43] 	0
scalar dtelecom_network.node[43].content_store 	decision_no[43] 	0
scalar dtelecom_network.node[43].content_store 	decision_ratio[43] 	0
scalar dtelecom_network.node[44].core_layer 	interests[44] 	13705
scalar dtelecom_network.node[44].core_layer 	repo_load[44] 	11144
scalar dtelecom_network.node[44].core_layer 	data[44] 	0
scalar dtelecom_network.node[44].content_store 	p_hit[44] 	0.18686610726012
scalar dtelecom_network.node[44].content_store 	hits[44] 	2561
scalar dtelecom_network.node[44].content_store 	misses[44] 	11144
scalar dtelecom_network.node[44].content_store 	decision_yes[44] 	27
scalar dtelecom_network.node[44].content_store 	decision_no[44] 	11117
scalar dtelecom_network.node[44].content_store 	decision_ratio[44] 	0.0024228284278536
scalar dtelecom_network.node[45].core_layer 	interests[45] 	13565
scalar dtelecom_network.node[45].core_layer 	data[45] 	8794
scalar dtelecom_network.node[45].content_store 	p_hit[45] 	0.35164025064504
scalar dtelecom_network.node[45].content_store 	hits[45] 	4770
scalar dtelecom_network.node[45].content_store 	misses[45] 	8795
scalar dtelecom_network.node[45].content_store 	decision_yes[45] 	10
scalar dtelecom_network.node[45].content_store 	decision_no[45] 	8784
scalar dtelecom_network.node[45].content_store 	decision_ratio[45] 	0.0011371389583807
scalar dtelecom_network.node[46].core_layer 	interests[46] 	25756
scalar dtelecom_network.node[46].core_layer 	repo_load[46] 	12126
scalar dtelecom_network.node[46].core_layer 	data[46] 	8823
scalar dtelecom_network.node[46].content_store 	p_hit[46] 	0.18655847181239
scalar dtelecom_network.node[46].content_store 	hits[46] 	4805
scalar dtelecom_network.node[46].content_store 	misses[46] 	20951
scalar dtelecom_network.node[46].content_store 	decision_yes[46] 	17
scalar dtelecom_network.node[46].content_store 	decision_no[46] 	20932
scalar dtelecom_network.node[46].content_store 	decision_ratio[46] 	0.00081149458208029
scalar dtelecom_network.node[47].core_layer 	interests[47] 	0
scalar dtelecom_network.node[47].core_layer 	data[47] 	0
scalar dtelecom_network.node[47].content_store 	p_hit[47] 	-nan
scalar dtelecom_network.node[47].content_store 	hits[47] 	0
scalar dtelecom_network.node[47].content_store 	misses[47] 	0
scalar dtelecom_network.node[47].content_store 	decision_yes[47] 	0
scalar dtelecom_network.node[47].content_store 	decision_no[47] 	0
scalar dtelecom_network.node[47].content_store 	decision_ratio[47] 	0
scalar dtelecom_network.node[48].core_layer 	interests[48] 	12989
scalar dtelecom_network.node[48].core_layer 	data[48] 	8832
scalar dtelecom_network.node[48].content_store 	p_hit[48] 	0.32004003387482
scalar dtelecom_network.node[48].content_store 	hits[48] 	4157
scalar dtelecom_network.node[48].content_store 	misses[48] 	8832
scalar dtelecom_network.node[48].content_store 	decision_yes[48] 	4
scalar dtelecom_network.node[48].content_store 	decision_no[48] 	8828
scalar dtelecom_network.node[48].content_store 	decision_ratio[48] 	0.00045289855072464
scalar dtelecom_network.node[49].core_layer 	interests[49] 	12988
scalar dtelecom_network.node[49].core_layer 	data[49] 	8902
scalar dtelecom_network.node[49].content_store 	p_hit[49] 	0.31459809054512
scalar dtelecom_network.node[49].content_store 	hits[49] 	4086
scalar dtelecom_network.node[49].content_store 	misses[49] 	8902
scalar dtelecom_network.node[49].content_store 	decision_yes[49] 	5
scalar dtelecom_network.node[49].content_store 	decision_no[49] 	8897
scalar dtelecom_network.node[49].content_store 	decision_ratio[49] 	0.00056167153448663
scalar dtelecom_network.node[50].core_layer 	interests[50] 	12978
scalar dtelecom_network.node[50].core_layer 	data[50] 	8904
scalar dtelecom_network.node[50].content_store 	p_hit[50] 	0.31391585760518
scalar dtelecom_network.node[50].content_store 	hits[50] 	4074
scalar dtelecom_network.node[50].content_store 	misses[50] 	8904
scalar dtelecom_network.node[50].content_store 	decision_yes[50] 	7
scalar dtelecom_network.node[50].content_store 	decision_no[50] 	8897
scalar dtelecom_network.node[50].content_store 	decision_ratio[50] 	0.00078616352201258
scalar dtelecom_network.node[51].core_layer 	interests[51] 	13561
scalar dtelecom_network.node[51].core_layer 	data[51] 	8958
scalar dtelecom_network.node[51].content_store 	p_hit[51] 	0.33935550475629
scalar dtelecom_network.node[51].content_store 	hits[51] 	4602
scalar dtelecom_network.node[51].content_store 	misses[51] 	8959
scalar dtelecom_network.node[51].content_store 	decision_yes[51] 	6
scalar dtelecom_network.node[51].content_store 	decision_no[51] 	8952
scalar dtelecom_network.node[51].content_store 	decision_ratio[51] 	0.00066979236436705
scalar dtelecom_network.node[52].core_layer 	interests[52] 	0
scalar dtelecom_network.node[52].core_layer 	data[52] 	0
scalar dtelecom_network.node[52].content_store 	p_hit[52] 	-nan
scalar dtelecom_network.node[52].content_store 	hits[52] 	0
scalar dtelecom_network.node[52].content_store 	misses[52] 	0
scalar dtelecom_network.node[52].content_store 	decision_yes[52] 	0
scalar dtelecom_network.node[52].content_store 	decision_no[52] 	0
scalar dtelecom_network.node[52].content_store 	decision_ratio[52] 	0
scalar dtelecom_network.node[53].core_layer 	interests[53] 	13413
scalar dtelecom_network.node[53].core_layer 	data[53] 	9015
scalar dtelecom_network.node[53].content_store 	p_hit[53] 	0.32781629762171
scalar dtelecom_network.node[53].content_store 	hits[53] 	4397
scalar dtelecom_network.node[53].content_store 	misses[53] 	9016
scalar dtelecom_network.node[53].content_store 	decision_yes[53] 	4
scalar dtelecom_network.node[53].content_store 	decision_no[53] 	9011
scalar dtelecom_network.node[53].content_store 	decision_ratio[53] 	0.00044370493621742
scalar dtelecom_network.node[54].core_layer 	interests[54] 	25460
scalar dtelecom_network.node[54].core_layer 	repo_load[54] 	12103
scalar dtelecom_network.node[54].core_layer 	data[54] 	8727
scalar dtelecom_network.node[54].content_store 	p_hit[54] 	0.1818931657502
scalar dtelecom_network.node[54].content_store 	hits[54] 	4631
scalar dtelecom_network.node[54].content_store 	misses[54] 	20829
scalar dtelecom_network.node[54].content_store 	decision_yes[54] 	23
scalar dtelecom_network.node[54].content_store 	decision_no[54] 	20807
scalar dtelecom_network.node[54].content_store 	decision_ratio[54] 	0.0011041766682669
scalar dtelecom_network.node[55].core_layer 	interests[55] 	13477
scalar dtelecom_network.node[55].core_layer 	data[55] 	8874
scalar dtelecom_network.node[55].content_store 	p_hit[55] 	0.34147065370631
scalar dtelecom_network.node[55].content_store 	hits[55] 	4602
scalar dtelecom_network.node[55].content_store 	misses[55] 	8875
scalar dtelecom_network.node[55].content_store 	decision_yes[55] 	8
scalar dtelecom_network.node[55].content_store 	decision_no[55] 	8866
scalar dtelecom_network.node[55].content_store 	decision_ratio[55] 	0.00090151002929908
scalar dtelecom_network.node[56].core_layer 	interests[56] 	13265
scalar dtelecom_network.node[56].core_layer 	data[56] 	8922
scalar dtelecom_network.node[56].content_store 	p_hit[56] 	0.32732755371278
scalar dtelecom_network.node[56].content_store 	hits[56] 	4342
scalar dtelecom_network.node[56].content_store 	misses[56] 	8923
scalar dtelecom_network.node[56].content_store 	decision_yes[56] 	8
scalar dtelecom_network.node[56].content_store 	decision_no[56] 	8914
scalar dtelecom_network.node[56].content_store 	decision_ratio[56] 	0.0008966599417171
scalar dtelecom_network.node[57].core_layer 	interests[57] 	13139
scalar dtelecom_network.node[57].core_layer 	data[57] 	9061
scalar dtelecom_network.node[57].content_store 	p_hit[57] 	0.31037369662836
scalar dtelecom_network.node[57].content_store 	hits[57] 	4078
scalar dtelecom_network.node[57].content_store 	misses[57] 	9061
scalar dtelecom_network.node[57].content_store 	decision_yes[57] 	8
scalar dtelecom_network.node[57].content_store 	decision_no[57] 	9053
scalar dtelecom_network.node[57].content_store 	decision_ratio[57] 	0.00088290475664938
scalar dtelecom_network.node[58].core_layer 	interests[58] 	25083
scalar dtelecom_network.node[58].core_layer 	repo_load[58] 	11764
scalar dtelecom_network.node[58].core_layer 	data[58] 	8758
scalar dtelecom_network.node[58].content_store 	p_hit[58] 	0.18171670055416
scalar dtelecom_network.node[58].content_store 	hits[58] 	4558
scalar dtelecom_network.node[58].content_store 	misses[58] 	20525
scalar dtelecom_network.node[58].content_store 	decision_yes[58] 	14
scalar dtelecom_network.node[58].content_store 	decision_no[58] 	20508
scalar dtelecom_network.node[58].content_store 	decision_ratio[58] 	0.00068219471786376
scalar dtelecom_network.node[59].core_layer 	interests[59] 	14654
scalar dtelecom_network.node[59].core_layer 	data[59] 	8759
scalar dtelecom_network.node[59].content_store 	p_hit[59] 	0.40214275965607
scalar dtelecom_network.node[59].content_store 	hits[59] 	5893
scalar dtelecom_network.node[59].content_store 	misses[59] 	8761
scalar dtelecom_network.node[59].content_store 	decision_yes[59] 	6
scalar dtelecom_network.node[59].content_store 	decision_no[59] 	8753
scalar dtelecom_network.node[59].content_store 	decision_ratio[59] 	0.00068500970430414
scalar dtelecom_network.node[60].core_layer 	interests[60] 	0
scalar dtelecom_network.node[60].core_layer 	data[60] 	0
scalar dtelecom_network.node[60].content_store 	p_hit[60] 	-nan
scalar dtelecom_network.node[60].content_store 	hits[60] 	0
scalar dtelecom_network.node[60].content_store 	misses[60] 	0
scalar dtelecom_network.node[60].content_store 	decision_yes[60] 	0
scalar dtelecom_network.node[60].content_store 	decision_no[60] 	0
scalar dtelecom_network.node[60].content_store 	decision_ratio[60] 	0
scalar dtelecom_network.node[61].core_layer 	interests[61] 	0
scalar dtelecom_network.node[61].core_layer 	data[61] 	0
scalar dtelecom_network.node[61].content_store 	p_hit[61] 	-nan
scalar dtelecom_network.node[61].content_store 	hits[61] 	0
scalar dtelecom_network.node[61].content_store 	misses[61] 	0
scalar dtelecom_network.node[61].content_store 	decision_yes[61] 	0
scalar dtelecom_network.node[61].content_store 	decision_no[61] 	0
scalar dtelecom_network.node[61].content_store 	decision_ratio[61] 	0
scalar dtelecom_network.node[62].core_layer 	interests[62] 	12675
scalar dtelecom_network.node[62].core_layer 	data[62] 	8928
scalar dtelecom_network.node[62].content_store 	p_hit[62] 	0.29554240631164
scalar dtelecom_network.node[62].content_store 	hits[62] 	3746
scalar dtelecom_network.node[62].content_store 	misses[62] 	8929
scalar dtelecom_network.node[62].content_store 	decision_yes[62] 	10
scalar dtelecom_network.node[62].content_store 	decision_no[62] 	8918
scalar dtelecom_network.node[62].content_store 	decision_ratio[62] 	0.0011200716845878
scalar dtelecom_network.node[63].core_layer 	interests[63] 	0
scalar dtelecom_network.node[63].core_layer 	data[63] 	0
scalar dtelecom_network.node[63].content_store 	p_hit[63] 	-nan
scalar dtelecom_network.node[63].content_store 	hits[63] 	0
scalar dtelecom_network.node[63].content_store 	misses[63] 	0
scalar dtelecom_network.node[63].content_store 	decision_yes[63] 	0
scalar dtelecom_network.node[63].content_store 	decision_no[63] 	0
scalar dtelecom_network.node[63].content_store 	decision_ratio[63] 	0
scalar dtelecom_network.node[64].core_layer 	interests[64] 	0
scalar dtelecom_network.node[64].core_layer 	data[64] 	0
scalar dtelecom_network.node[64].content_store 	p_hit[64] 	-nan
scalar dtelecom_network.node[64].content_store 	hits[64] 	0
scalar dtelecom_network.node[64].content_store 	misses[64] 	0
scalar dtelecom_network.node[64].content_store 	decision_yes[64] 	0
scalar dtelecom_network.node[64].content_store 	decision_no[64] 	0
scalar dtelecom_network.node[64].content_store 	decision_ratio[64] 	0
scalar dtelecom_network.node[65].core_layer 	interests[65] 	13921
scalar dtelecom_network.node[65].core_layer 	repo_load[65] 	11447
scalar dtelecom_network.node[65].core_layer 	data[65] 	31
scalar dtelecom_network.node[65].content_store 	p_hit[65] 	0.17549026650384
scalar dtelecom_network.node[65].content_store 	hits[65] 	2443
scalar dtelecom_network.node[65].content_store 	misses[65] 	11478
scalar dtelecom_network.node[65].content_store 	decision_yes[65] 	25
scalar dtelecom_network.node[65].content_store 	decision_no[65] 	11453
scalar dtelecom_network.node[65].content_store 	decision_ratio[65] 	0.002178079804844
scalar dtelecom_network.node[66].core_layer 	interests[66] 	12827
scalar dtelecom_network.node[66].core_layer 	data[66] 	8971
scalar dtelecom_network.node[66].content_store 	p_hit[66] 	0.30030404615265
scalar dtelecom_network.node[66].content_store 	hits[66] 	3852
scalar dtelecom_network.node[66].content_store 	misses[66] 	8975
scalar dtelecom_network.node[66].content_store 	decision_yes[66] 	11
scalar dtelecom_network.node[66].content_store 	decision_no[66] 	8960
scalar dtelecom_network.node[66].content_store 	decision_ratio[66] 	0.0012261732248356
scalar dtelecom_network.node[67].core_layer 	interests[67] 	12720
scalar dtelecom_network.node[67].core_layer 	data[67] 	8923
scalar dtelecom_network.node[67].content_store 	p_hit[67] 	0.29834905660377
scalar dtelecom_network.node[67].content_store 	hits[67] 	3795
scalar dtelecom_network.node[67].content_store 	misses[67] 	8925
scalar dtelecom_network.node[67].content_store 	decision_yes[67] 	9
scalar dtelecom_network.node[67].content_store 	decision_no[67] 	8914
scalar dtelecom_network.node[67].content_store 	decision_ratio[67] 	0.0010086293847361
scalar dtelecom_network.client[3] 	hdistance[3] 	1.2495405179616
scalar dtelecom_network.client[3] 	downloads[3] 	11970
scalar dtelecom_network.client[3] 	avg_time[3] 	0.008584768678
scalar dtelecom_network.client[4] 	hdistance[4] 	1.3035358565737
scalar dtelecom_network.client[4] 	downloads[4] 	12048
scalar dtelecom_network.client[4] 	avg_time[4] 	0.049885453016
scalar dtelecom_network.client[8] 	hdistance[8] 	1.8496965666306
scalar dtelecom_network.client[8] 	downloads[8] 	12029
scalar dtelecom_network.client[8] 	avg_time[8] 	0.013375983248
scalar dtelecom_network.client[9] 	hdistance[9] 	1.7462953500255
scalar dtelecom_network.client[9] 	downloads[9] 	11742
scalar dtelecom_network.client[9] 	avg_time[9] 	0.01300062077
scalar dtelecom_network.client[17] 	hdistance[17] 	1.8317452357071
scalar dtelecom_network.client[17] 	downloads[17] 	11964
scalar dtelecom_network.client[17] 	avg_time[17] 	0.011432943991
scalar dtelecom_network.client[22] 	hdistance[22] 	1.8118093353126
scalar dtelecom_network.client[22] 	downloads[22] 	12126
scalar dtelecom_network.client[22] 	avg_time[22] 	0.012332726916
scalar dtelecom_network.client[23] 	hdistance[23] 	1.6015932914046
scalar dtelecom_network.client[23] 	downloads[23] 	11925
scalar dtelecom_network.client[23] 	avg_time[23] 	0.010692092885
scalar dtelecom_network.client[28] 	hdistance[28] 	1.7636318366669
scalar dtelecom_network.client[28] 	downloads[28] 	12049
scalar dtelecom_network.client[28] 	avg_time[28] 	0.015136058756
scalar dtelecom_network.client[30] 	hdistance[30] 	1.807438715131
scalar dtelecom_network.client[30] 	downloads[30] 	11830
scalar dtelecom_network.client[30] 	avg_time[30] 	0.012465005477
scalar dtelecom_network.client[31] 	hdistance[31] 	1.7273030151591
scalar dtelecom_network.client[31] 	downloads[31] 	12006
scalar dtelecom_network.client[31] 	avg_time[31] 	0.014259095212
scalar dtelecom_network.client[32] 	hdistance[32] 	1.7952040387042
scalar dtelecom_network.client[32] 	downloads[32] 	11885
scalar dtelecom_network.client[32] 	avg_time[32] 	0.0108643589
scalar dtelecom_network.client[33] 	hdistance[33] 	1.7229077478385
scalar dtelecom_network.client[33] 	downloads[33] 	11913
scalar dtelecom_network.client[33] 	avg_time[33] 	0.011624391625
scalar dtelecom_network.client[36] 	hdistance[36] 	1.8005018820577
scalar dtelecom_network.client[36] 	downloads[36] 	11955
scalar dtelecom_network.client[36] 	avg_time[36] 	0.012421868811
scalar dtelecom_network.client[37] 	hdistance[37] 	1.7396351575456
scalar dtelecom_network.client[37] 	downloads[37] 	12060
scalar dtelecom_network.client[37] 	avg_time[37] 	0.012508786386
scalar dtelecom_network.client[40] 	hdistance[40] 	1.6903965199933
scalar dtelecom_network.client[40] 	downloads[40] 	11954
scalar dtelecom_network.client[40] 	avg_time[40] 	0.013037940566
scalar dtelecom_network.client[42] 	hdistance[42] 	1.8282477466303
scalar dtelecom_network.client[42] 	downloads[42] 	12093
scalar dtelecom_network.client[42] 	avg_time[42] 	0.014633875721
scalar dtelecom_network.client[45] 	hdistance[45] 	1.7591001011122
scalar dtelecom_network.client[45] 	downloads[45] 	11868
scalar dtelecom_network.client[45] 	avg_time[45] 	0.012227441412
scalar dtelecom_network.client[46] 	hdistance[46] 	1.7803357712766
scalar dtelecom_network.client[46] 	downloads[46] 	12032
scalar dtelecom_network.client[46] 	avg_time[46] 	0.014136312343
scalar dtelecom_network.client[48] 	hdistance[48] 	1.8488555971702
scalar dtelecom_network.client[48] 	downloads[48] 	12015
scalar dtelecom_network.client[48] 	avg_time[48] 	0.01273142856
scalar dtelecom_network.client[49] 	hdistance[49] 	1.8238051393655
scalar dtelecom_network.client[49] 	downloads[49] 	11947
scalar dtelecom_network.client[49] 	avg_time[49] 	0.012046412628
scalar dtelecom_network.client[50] 	hdistance[50] 	1.8157213265391
scalar dtelecom_network.client[50] 	downloads[50] 	11971
scalar dtelecom_network.client[50] 	avg_time[50] 	0.011657063638
scalar dtelecom_network.client[51] 	hdistance[51] 	1.6781002638522
scalar dtelecom_network.client[51] 	downloads[51] 	12128
scalar dtelecom_network.client[51] 	avg_time[51] 	0.011740352676
scalar dtelecom_network.client[53] 	hdistance[53] 	1.8149100257069
scalar dtelecom_network.client[53] 	downloads[53] 	12059
scalar dtelecom_network.client[53] 	avg_time[53] 	0.011315498449
scalar dtelecom_network.client[54] 	hdistance[54] 	1.6836633663366
scalar dtelecom_network.client[54] 	downloads[54] 	12120
scalar dtelecom_network.client[54] 	avg_time[54] 	0.01295223132
scalar dtelecom_network.client[55] 	hdistance[55] 	1.7756032838544
scalar dtelecom_network.client[55] 	downloads[55] 	12059
scalar dtelecom_network.client[55] 	avg_time[55] 	0.016082811546
scalar dtelecom_network.client[56] 	hdistance[56] 	1.7855225633283
scalar dtelecom_network.client[56] 	downloads[56] 	11922
scalar dtelecom_network.client[56] 	avg_time[56] 	0.011911148318
scalar dtelecom_network.client[57] 	hdistance[57] 	1.810535816854
scalar dtelecom_network.client[57] 	downloads[57] 	12187
scalar dtelecom_network.client[57] 	avg_time[57] 	0.011274527043
scalar dtelecom_network.client[58] 	hdistance[58] 	1.7798894842599
scalar dtelecom_network.client[58] 	downloads[58] 	11944
scalar dtelecom_network.client[58] 	avg_time[58] 	0.015069158743
scalar dtelecom_network.client[59] 	hdistance[59] 	1.6460847133228
scalar dtelecom_network.client[59] 	downloads[59] 	12017
scalar dtelecom_network.client[59] 	avg_time[59] 	0.054163807101
scalar dtelecom_network.client[62] 	hdistance[62] 	2.1294234922745
scalar dtelecom_network.client[62] 	downloads[62] 	12038
scalar dtelecom_network.client[62] 	avg_time[62] 	0.052994181041
scalar dtelecom_network.client[66] 	hdistance[66] 	1.942488844819
scalar dtelecom_network.client[66] 	downloads[66] 	12102
scalar dtelecom_network.client[66] 	avg_time[66] 	0.08900614703
scalar dtelecom_network.client[67] 	hdistance[67] 	1.9307685997867
scalar dtelecom_network.client[67] 	downloads[67] 	12191
scalar dtelecom_network.client[67] 	avg_time[67] 	0.073665670529
