version 2
run General-70-20160825-04:23:59-24543
attr D ffc0.05
attr F nrr
attr R lru
attr a 0.9
attr configname General
attr datetime 20160825-04:23:59
attr experiment General
attr inifile hw5115/scenario_C/omnetp.ini
attr iterationvars "$net=dtelecom, $rep=8, $a=0.9, $F=nrr, $D=ffc0.05, $R=lru, $window=60, $variance=0.05, $mytime=600"
attr iterationvars2 "$net=dtelecom, $rep=8, $a=0.9, $F=nrr, $D=ffc0.05, $R=lru, $window=60, $variance=0.05, $mytime=600, $repetition=0"
attr measurement "$net=dtelecom, $rep=8, $a=0.9, $F=nrr, $D=ffc0.05, $R=lru, $window=60, $variance=0.05, $mytime=600"
attr mytime 600
attr net dtelecom
attr network networks.${net=dtelecom}_network
attr processid 24543
attr rep 8
attr repetition 0
attr replication #0
attr resultdir results
attr runnumber 70
attr seedset 8
attr variance 0.05
attr window 60

scalar . 	a 	0.9
scalar . 	mytime 	600
scalar . 	rep 	8
scalar . 	variance 	0.05
scalar . 	window 	60
scalar dtelecom_network.content_distribution 	repo-0 	4
scalar dtelecom_network.content_distribution 	repo-1 	62
scalar dtelecom_network.content_distribution 	repo-2 	15
scalar dtelecom_network.content_distribution 	repo-3 	61
scalar dtelecom_network.content_distribution 	repo-4 	23
scalar dtelecom_network.content_distribution 	repo-5 	44
scalar dtelecom_network.content_distribution 	repo-6 	50
scalar dtelecom_network.content_distribution 	repo-7 	8
scalar dtelecom_network.content_distribution 	repo-8 	28
scalar dtelecom_network.content_distribution 	repo-9 	31
scalar dtelecom_network.content_distribution 	repo-10 	1
scalar dtelecom_network.content_distribution 	repo-11 	39
scalar dtelecom_network.content_distribution 	repo-12 	3
scalar dtelecom_network.content_distribution 	repo-13 	55
scalar dtelecom_network.content_distribution 	repo-14 	45
scalar dtelecom_network.content_distribution 	repo-15 	22
scalar dtelecom_network.content_distribution 	client-0 	46
scalar dtelecom_network.content_distribution 	client-1 	30
scalar dtelecom_network.content_distribution 	client-2 	8
scalar dtelecom_network.content_distribution 	client-3 	49
scalar dtelecom_network.content_distribution 	client-4 	66
scalar dtelecom_network.content_distribution 	client-5 	58
scalar dtelecom_network.content_distribution 	client-6 	32
scalar dtelecom_network.content_distribution 	client-7 	40
scalar dtelecom_network.content_distribution 	client-8 	42
scalar dtelecom_network.content_distribution 	client-9 	45
scalar dtelecom_network.content_distribution 	client-10 	33
scalar dtelecom_network.content_distribution 	client-11 	28
scalar dtelecom_network.content_distribution 	client-12 	3
scalar dtelecom_network.content_distribution 	client-13 	57
scalar dtelecom_network.content_distribution 	client-14 	50
scalar dtelecom_network.content_distribution 	client-15 	17
scalar dtelecom_network.content_distribution 	client-16 	59
scalar dtelecom_network.content_distribution 	client-17 	48
scalar dtelecom_network.content_distribution 	client-18 	23
scalar dtelecom_network.content_distribution 	client-19 	22
scalar dtelecom_network.content_distribution 	client-20 	67
scalar dtelecom_network.content_distribution 	client-21 	62
scalar dtelecom_network.content_distribution 	client-22 	56
scalar dtelecom_network.content_distribution 	client-23 	55
scalar dtelecom_network.content_distribution 	client-24 	53
scalar dtelecom_network.content_distribution 	client-25 	36
scalar dtelecom_network.content_distribution 	client-26 	51
scalar dtelecom_network.content_distribution 	client-27 	37
scalar dtelecom_network.content_distribution 	client-28 	54
scalar dtelecom_network.content_distribution 	client-29 	4
scalar dtelecom_network.content_distribution 	client-30 	31
scalar dtelecom_network.content_distribution 	client-31 	9
scalar dtelecom_network.content_distribution 	repo-0_card 	6204
scalar dtelecom_network.content_distribution 	repo-0_price 	0
scalar dtelecom_network.content_distribution 	repo-1_card 	6316
scalar dtelecom_network.content_distribution 	repo-1_price 	0
scalar dtelecom_network.content_distribution 	repo-2_card 	6112
scalar dtelecom_network.content_distribution 	repo-2_price 	0
scalar dtelecom_network.content_distribution 	repo-3_card 	6350
scalar dtelecom_network.content_distribution 	repo-3_price 	0
scalar dtelecom_network.content_distribution 	repo-4_card 	6339
scalar dtelecom_network.content_distribution 	repo-4_price 	0
scalar dtelecom_network.content_distribution 	repo-5_card 	6223
scalar dtelecom_network.content_distribution 	repo-5_price 	0
scalar dtelecom_network.content_distribution 	repo-6_card 	6195
scalar dtelecom_network.content_distribution 	repo-6_price 	0
scalar dtelecom_network.content_distribution 	repo-7_card 	6310
scalar dtelecom_network.content_distribution 	repo-7_price 	0
scalar dtelecom_network.content_distribution 	repo-8_card 	6323
scalar dtelecom_network.content_distribution 	repo-8_price 	0
scalar dtelecom_network.content_distribution 	repo-9_card 	6231
scalar dtelecom_network.content_distribution 	repo-9_price 	0
scalar dtelecom_network.content_distribution 	repo-10_card 	6186
scalar dtelecom_network.content_distribution 	repo-10_price 	0
scalar dtelecom_network.content_distribution 	repo-11_card 	6137
scalar dtelecom_network.content_distribution 	repo-11_price 	0
scalar dtelecom_network.content_distribution 	repo-12_card 	6315
scalar dtelecom_network.content_distribution 	repo-12_price 	0
scalar dtelecom_network.content_distribution 	repo-13_card 	6325
scalar dtelecom_network.content_distribution 	repo-13_price 	0
scalar dtelecom_network.content_distribution 	repo-14_card 	6117
scalar dtelecom_network.content_distribution 	repo-14_price 	0
scalar dtelecom_network.content_distribution 	repo-15_card 	6317
scalar dtelecom_network.content_distribution 	repo-15_price 	0
scalar dtelecom_network.statistics 	stabilization_time 	11020.2
scalar dtelecom_network.statistics 	p_hit 	0.30224049736216
scalar dtelecom_network.statistics 	interests 	12530.147058824
scalar dtelecom_network.statistics 	data 	6889.2058823529
scalar dtelecom_network.statistics 	hdistance 	1.7287095470511
scalar dtelecom_network.statistics 	avg_time 	0.023463124848
scalar dtelecom_network.statistics 	downloads 	383563
scalar dtelecom_network.statistics 	total_cost 	0
scalar dtelecom_network.statistics 	total_replicas 	100000
scalar dtelecom_network.statistics 	inner_hit 	0.4929385785386
scalar dtelecom_network.node[0].core_layer 	interests[0] 	0
scalar dtelecom_network.node[0].core_layer 	data[0] 	0
scalar dtelecom_network.node[0].core_layer 	repo_int[0] 	194490
scalar dtelecom_network.node[0].content_store 	p_hit[0] 	-nan
scalar dtelecom_network.node[0].content_store 	hits[0] 	0
scalar dtelecom_network.node[0].content_store 	misses[0] 	0
scalar dtelecom_network.node[0].content_store 	decision_yes[0] 	0
scalar dtelecom_network.node[0].content_store 	decision_no[0] 	0
scalar dtelecom_network.node[0].content_store 	decision_ratio[0] 	0
scalar dtelecom_network.node[1].core_layer 	interests[1] 	158880
scalar dtelecom_network.node[1].core_layer 	repo_load[1] 	14638
scalar dtelecom_network.node[1].core_layer 	data[1] 	133997
scalar dtelecom_network.node[1].content_store 	p_hit[1] 	0.064451158106747
scalar dtelecom_network.node[1].content_store 	hits[1] 	10240
scalar dtelecom_network.node[1].content_store 	misses[1] 	148640
scalar dtelecom_network.node[1].content_store 	decision_yes[1] 	66
scalar dtelecom_network.node[1].content_store 	decision_no[1] 	148569
scalar dtelecom_network.node[1].content_store 	decision_ratio[1] 	0.00044404077101625
scalar dtelecom_network.node[2].core_layer 	interests[2] 	4705
scalar dtelecom_network.node[2].core_layer 	data[2] 	2580
scalar dtelecom_network.node[2].content_store 	p_hit[2] 	0.45164718384697
scalar dtelecom_network.node[2].content_store 	hits[2] 	2125
scalar dtelecom_network.node[2].content_store 	misses[2] 	2580
scalar dtelecom_network.node[2].content_store 	decision_yes[2] 	5
scalar dtelecom_network.node[2].content_store 	decision_no[2] 	2575
scalar dtelecom_network.node[2].content_store 	decision_ratio[2] 	0.001937984496124
scalar dtelecom_network.node[3].core_layer 	interests[3] 	33789
scalar dtelecom_network.node[3].core_layer 	repo_load[3] 	13641
scalar dtelecom_network.node[3].core_layer 	data[3] 	8986
scalar dtelecom_network.node[3].content_store 	p_hit[3] 	0.33040338571725
scalar dtelecom_network.node[3].content_store 	hits[3] 	11164
scalar dtelecom_network.node[3].content_store 	misses[3] 	22625
scalar dtelecom_network.node[3].content_store 	decision_yes[3] 	41
scalar dtelecom_network.node[3].content_store 	decision_no[3] 	22586
scalar dtelecom_network.node[3].content_store 	decision_ratio[3] 	0.0018119945198215
scalar dtelecom_network.node[4].core_layer 	interests[4] 	63819
scalar dtelecom_network.node[4].core_layer 	repo_load[4] 	13866
scalar dtelecom_network.node[4].core_layer 	data[4] 	36593
scalar dtelecom_network.node[4].content_store 	p_hit[4] 	0.20898165123239
scalar dtelecom_network.node[4].content_store 	hits[4] 	13337
scalar dtelecom_network.node[4].content_store 	misses[4] 	50482
scalar dtelecom_network.node[4].content_store 	decision_yes[4] 	38
scalar dtelecom_network.node[4].content_store 	decision_no[4] 	50421
scalar dtelecom_network.node[4].content_store 	decision_ratio[4] 	0.00075308666442062
scalar dtelecom_network.node[5].core_layer 	interests[5] 	0
scalar dtelecom_network.node[5].core_layer 	data[5] 	0
scalar dtelecom_network.node[5].content_store 	p_hit[5] 	-nan
scalar dtelecom_network.node[5].content_store 	hits[5] 	0
scalar dtelecom_network.node[5].content_store 	misses[5] 	0
scalar dtelecom_network.node[5].content_store 	decision_yes[5] 	0
scalar dtelecom_network.node[5].content_store 	decision_no[5] 	0
scalar dtelecom_network.node[5].content_store 	decision_ratio[5] 	0
scalar dtelecom_network.node[6].core_layer 	interests[6] 	0
scalar dtelecom_network.node[6].core_layer 	data[6] 	0
scalar dtelecom_network.node[6].content_store 	p_hit[6] 	-nan
scalar dtelecom_network.node[6].content_store 	hits[6] 	0
scalar dtelecom_network.node[6].content_store 	misses[6] 	0
scalar dtelecom_network.node[6].content_store 	decision_yes[6] 	0
scalar dtelecom_network.node[6].content_store 	decision_no[6] 	0
scalar dtelecom_network.node[6].content_store 	decision_ratio[6] 	0
scalar dtelecom_network.node[7].core_layer 	interests[7] 	0
scalar dtelecom_network.node[7].core_layer 	data[7] 	0
scalar dtelecom_network.node[7].content_store 	p_hit[7] 	-nan
scalar dtelecom_network.node[7].content_store 	hits[7] 	0
scalar dtelecom_network.node[7].content_store 	misses[7] 	0
scalar dtelecom_network.node[7].content_store 	decision_yes[7] 	0
scalar dtelecom_network.node[7].content_store 	decision_no[7] 	0
scalar dtelecom_network.node[7].content_store 	decision_ratio[7] 	0
scalar dtelecom_network.node[8].core_layer 	interests[8] 	24563
scalar dtelecom_network.node[8].core_layer 	repo_load[8] 	11438
scalar dtelecom_network.node[8].core_layer 	data[8] 	8782
scalar dtelecom_network.node[8].content_store 	p_hit[8] 	0.17676993852542
scalar dtelecom_network.node[8].content_store 	hits[8] 	4342
scalar dtelecom_network.node[8].content_store 	misses[8] 	20221
scalar dtelecom_network.node[8].content_store 	decision_yes[8] 	21
scalar dtelecom_network.node[8].content_store 	decision_no[8] 	20199
scalar dtelecom_network.node[8].content_store 	decision_ratio[8] 	0.0010385756676558
scalar dtelecom_network.node[9].core_layer 	interests[9] 	14578
scalar dtelecom_network.node[9].core_layer 	data[9] 	9503
scalar dtelecom_network.node[9].content_store 	p_hit[9] 	0.34805871861709
scalar dtelecom_network.node[9].content_store 	hits[9] 	5074
scalar dtelecom_network.node[9].content_store 	misses[9] 	9504
scalar dtelecom_network.node[9].content_store 	decision_yes[9] 	8
scalar dtelecom_network.node[9].content_store 	decision_no[9] 	9495
scalar dtelecom_network.node[9].content_store 	decision_ratio[9] 	0.0008418394191308
scalar dtelecom_network.node[10].core_layer 	interests[10] 	0
scalar dtelecom_network.node[10].core_layer 	data[10] 	0
scalar dtelecom_network.node[10].content_store 	p_hit[10] 	-nan
scalar dtelecom_network.node[10].content_store 	hits[10] 	0
scalar dtelecom_network.node[10].content_store 	misses[10] 	0
scalar dtelecom_network.node[10].content_store 	decision_yes[10] 	0
scalar dtelecom_network.node[10].content_store 	decision_no[10] 	0
scalar dtelecom_network.node[10].content_store 	decision_ratio[10] 	0
scalar dtelecom_network.node[11].core_layer 	interests[11] 	0
scalar dtelecom_network.node[11].core_layer 	data[11] 	0
scalar dtelecom_network.node[11].content_store 	p_hit[11] 	-nan
scalar dtelecom_network.node[11].content_store 	hits[11] 	0
scalar dtelecom_network.node[11].content_store 	misses[11] 	0
scalar dtelecom_network.node[11].content_store 	decision_yes[11] 	0
scalar dtelecom_network.node[11].content_store 	decision_no[11] 	0
scalar dtelecom_network.node[11].content_store 	decision_ratio[11] 	0
scalar dtelecom_network.node[12].core_layer 	interests[12] 	0
scalar dtelecom_network.node[12].core_layer 	data[12] 	0
scalar dtelecom_network.node[12].content_store 	p_hit[12] 	-nan
scalar dtelecom_network.node[12].content_store 	hits[12] 	0
scalar dtelecom_network.node[12].content_store 	misses[12] 	0
scalar dtelecom_network.node[12].content_store 	decision_yes[12] 	0
scalar dtelecom_network.node[12].content_store 	decision_no[12] 	0
scalar dtelecom_network.node[12].content_store 	decision_ratio[12] 	0
scalar dtelecom_network.node[13].core_layer 	interests[13] 	0
scalar dtelecom_network.node[13].core_layer 	data[13] 	0
scalar dtelecom_network.node[13].content_store 	p_hit[13] 	-nan
scalar dtelecom_network.node[13].content_store 	hits[13] 	0
scalar dtelecom_network.node[13].content_store 	misses[13] 	0
scalar dtelecom_network.node[13].content_store 	decision_yes[13] 	0
scalar dtelecom_network.node[13].content_store 	decision_no[13] 	0
scalar dtelecom_network.node[13].content_store 	decision_ratio[13] 	0
scalar dtelecom_network.node[14].core_layer 	interests[14] 	0
scalar dtelecom_network.node[14].core_layer 	data[14] 	0
scalar dtelecom_network.node[14].content_store 	p_hit[14] 	-nan
scalar dtelecom_network.node[14].content_store 	hits[14] 	0
scalar dtelecom_network.node[14].content_store 	misses[14] 	0
scalar dtelecom_network.node[14].content_store 	decision_yes[14] 	0
scalar dtelecom_network.node[14].content_store 	decision_no[14] 	0
scalar dtelecom_network.node[14].content_store 	decision_ratio[14] 	0
scalar dtelecom_network.node[15].core_layer 	interests[15] 	13679
scalar dtelecom_network.node[15].core_layer 	repo_load[15] 	10827
scalar dtelecom_network.node[15].core_layer 	data[15] 	0
scalar dtelecom_network.node[15].content_store 	p_hit[15] 	0.20849477300972
scalar dtelecom_network.node[15].content_store 	hits[15] 	2852
scalar dtelecom_network.node[15].content_store 	misses[15] 	10827
scalar dtelecom_network.node[15].content_store 	decision_yes[15] 	32
scalar dtelecom_network.node[15].content_store 	decision_no[15] 	10795
scalar dtelecom_network.node[15].content_store 	decision_ratio[15] 	0.0029555740278932
scalar dtelecom_network.node[16].core_layer 	interests[16] 	0
scalar dtelecom_network.node[16].core_layer 	data[16] 	0
scalar dtelecom_network.node[16].content_store 	p_hit[16] 	-nan
scalar dtelecom_network.node[16].content_store 	hits[16] 	0
scalar dtelecom_network.node[16].content_store 	misses[16] 	0
scalar dtelecom_network.node[16].content_store 	decision_yes[16] 	0
scalar dtelecom_network.node[16].content_store 	decision_no[16] 	0
scalar dtelecom_network.node[16].content_store 	decision_ratio[16] 	0
scalar dtelecom_network.node[17].core_layer 	interests[17] 	13759
scalar dtelecom_network.node[17].core_layer 	data[17] 	9139
scalar dtelecom_network.node[17].content_store 	p_hit[17] 	0.33585289628607
scalar dtelecom_network.node[17].content_store 	hits[17] 	4621
scalar dtelecom_network.node[17].content_store 	misses[17] 	9138
scalar dtelecom_network.node[17].content_store 	decision_yes[17] 	9
scalar dtelecom_network.node[17].content_store 	decision_no[17] 	9130
scalar dtelecom_network.node[17].content_store 	decision_ratio[17] 	0.00098479045847467
scalar dtelecom_network.node[18].core_layer 	interests[18] 	0
scalar dtelecom_network.node[18].core_layer 	data[18] 	0
scalar dtelecom_network.node[18].content_store 	p_hit[18] 	-nan
scalar dtelecom_network.node[18].content_store 	hits[18] 	0
scalar dtelecom_network.node[18].content_store 	misses[18] 	0
scalar dtelecom_network.node[18].content_store 	decision_yes[18] 	0
scalar dtelecom_network.node[18].content_store 	decision_no[18] 	0
scalar dtelecom_network.node[18].content_store 	decision_ratio[18] 	0
scalar dtelecom_network.node[19].core_layer 	interests[19] 	0
scalar dtelecom_network.node[19].core_layer 	data[19] 	0
scalar dtelecom_network.node[19].content_store 	p_hit[19] 	-nan
scalar dtelecom_network.node[19].content_store 	hits[19] 	0
scalar dtelecom_network.node[19].content_store 	misses[19] 	0
scalar dtelecom_network.node[19].content_store 	decision_yes[19] 	0
scalar dtelecom_network.node[19].content_store 	decision_no[19] 	0
scalar dtelecom_network.node[19].content_store 	decision_ratio[19] 	0
scalar dtelecom_network.node[20].core_layer 	interests[20] 	0
scalar dtelecom_network.node[20].core_layer 	data[20] 	0
scalar dtelecom_network.node[20].content_store 	p_hit[20] 	-nan
scalar dtelecom_network.node[20].content_store 	hits[20] 	0
scalar dtelecom_network.node[20].content_store 	misses[20] 	0
scalar dtelecom_network.node[20].content_store 	decision_yes[20] 	0
scalar dtelecom_network.node[20].content_store 	decision_no[20] 	0
scalar dtelecom_network.node[20].content_store 	decision_ratio[20] 	0
scalar dtelecom_network.node[21].core_layer 	interests[21] 	0
scalar dtelecom_network.node[21].core_layer 	data[21] 	0
scalar dtelecom_network.node[21].content_store 	p_hit[21] 	-nan
scalar dtelecom_network.node[21].content_store 	hits[21] 	0
scalar dtelecom_network.node[21].content_store 	misses[21] 	0
scalar dtelecom_network.node[21].content_store 	decision_yes[21] 	0
scalar dtelecom_network.node[21].content_store 	decision_no[21] 	0
scalar dtelecom_network.node[21].content_store 	decision_ratio[21] 	0
scalar dtelecom_network.node[22].core_layer 	interests[22] 	25446
scalar dtelecom_network.node[22].core_layer 	repo_load[22] 	11772
scalar dtelecom_network.node[22].core_layer 	data[22] 	8903
scalar dtelecom_network.node[22].content_store 	p_hit[22] 	0.18749508763656
scalar dtelecom_network.node[22].content_store 	hits[22] 	4771
scalar dtelecom_network.node[22].content_store 	misses[22] 	20675
scalar dtelecom_network.node[22].content_store 	decision_yes[22] 	17
scalar dtelecom_network.node[22].content_store 	decision_no[22] 	20658
scalar dtelecom_network.node[22].content_store 	decision_ratio[22] 	0.00082224909310762
scalar dtelecom_network.node[23].core_layer 	interests[23] 	49119
scalar dtelecom_network.node[23].core_layer 	repo_load[23] 	13180
scalar dtelecom_network.node[23].core_layer 	data[23] 	28877
scalar dtelecom_network.node[23].content_store 	p_hit[23] 	0.14352898063886
scalar dtelecom_network.node[23].content_store 	hits[23] 	7050
scalar dtelecom_network.node[23].content_store 	misses[23] 	42069
scalar dtelecom_network.node[23].content_store 	decision_yes[23] 	31
scalar dtelecom_network.node[23].content_store 	decision_no[23] 	42026
scalar dtelecom_network.node[23].content_store 	decision_ratio[23] 	0.00073709489502342
scalar dtelecom_network.node[24].core_layer 	interests[24] 	0
scalar dtelecom_network.node[24].core_layer 	data[24] 	0
scalar dtelecom_network.node[24].content_store 	p_hit[24] 	-nan
scalar dtelecom_network.node[24].content_store 	hits[24] 	0
scalar dtelecom_network.node[24].content_store 	misses[24] 	0
scalar dtelecom_network.node[24].content_store 	decision_yes[24] 	0
scalar dtelecom_network.node[24].content_store 	decision_no[24] 	0
scalar dtelecom_network.node[24].content_store 	decision_ratio[24] 	0
scalar dtelecom_network.node[25].core_layer 	interests[25] 	0
scalar dtelecom_network.node[25].core_layer 	data[25] 	0
scalar dtelecom_network.node[25].content_store 	p_hit[25] 	-nan
scalar dtelecom_network.node[25].content_store 	hits[25] 	0
scalar dtelecom_network.node[25].content_store 	misses[25] 	0
scalar dtelecom_network.node[25].content_store 	decision_yes[25] 	0
scalar dtelecom_network.node[25].content_store 	decision_no[25] 	0
scalar dtelecom_network.node[25].content_store 	decision_ratio[25] 	0
scalar dtelecom_network.node[26].core_layer 	interests[26] 	1354
scalar dtelecom_network.node[26].core_layer 	data[26] 	409
scalar dtelecom_network.node[26].content_store 	p_hit[26] 	0.69793205317578
scalar dtelecom_network.node[26].content_store 	hits[26] 	945
scalar dtelecom_network.node[26].content_store 	misses[26] 	409
scalar dtelecom_network.node[26].content_store 	decision_yes[26] 	1
scalar dtelecom_network.node[26].content_store 	decision_no[26] 	408
scalar dtelecom_network.node[26].content_store 	decision_ratio[26] 	0.0024449877750611
scalar dtelecom_network.node[27].core_layer 	interests[27] 	0
scalar dtelecom_network.node[27].core_layer 	data[27] 	0
scalar dtelecom_network.node[27].content_store 	p_hit[27] 	-nan
scalar dtelecom_network.node[27].content_store 	hits[27] 	0
scalar dtelecom_network.node[27].content_store 	misses[27] 	0
scalar dtelecom_network.node[27].content_store 	decision_yes[27] 	0
scalar dtelecom_network.node[27].content_store 	decision_no[27] 	0
scalar dtelecom_network.node[27].content_store 	decision_ratio[27] 	0
scalar dtelecom_network.node[28].core_layer 	interests[28] 	26535
scalar dtelecom_network.node[28].core_layer 	repo_load[28] 	12722
scalar dtelecom_network.node[28].core_layer 	data[28] 	8475
scalar dtelecom_network.node[28].content_store 	p_hit[28] 	0.20116826832485
scalar dtelecom_network.node[28].content_store 	hits[28] 	5338
scalar dtelecom_network.node[28].content_store 	misses[28] 	21197
scalar dtelecom_network.node[28].content_store 	decision_yes[28] 	24
scalar dtelecom_network.node[28].content_store 	decision_no[28] 	21173
scalar dtelecom_network.node[28].content_store 	decision_ratio[28] 	0.0011322356937302
scalar dtelecom_network.node[29].core_layer 	interests[29] 	0
scalar dtelecom_network.node[29].core_layer 	data[29] 	0
scalar dtelecom_network.node[29].content_store 	p_hit[29] 	-nan
scalar dtelecom_network.node[29].content_store 	hits[29] 	0
scalar dtelecom_network.node[29].content_store 	misses[29] 	0
scalar dtelecom_network.node[29].content_store 	decision_yes[29] 	0
scalar dtelecom_network.node[29].content_store 	decision_no[29] 	0
scalar dtelecom_network.node[29].content_store 	decision_ratio[29] 	0
scalar dtelecom_network.node[30].core_layer 	interests[30] 	12805
scalar dtelecom_network.node[30].core_layer 	data[30] 	8723
scalar dtelecom_network.node[30].content_store 	p_hit[30] 	0.31878172588832
scalar dtelecom_network.node[30].content_store 	hits[30] 	4082
scalar dtelecom_network.node[30].content_store 	misses[30] 	8723
scalar dtelecom_network.node[30].content_store 	decision_yes[30] 	7
scalar dtelecom_network.node[30].content_store 	decision_no[30] 	8716
scalar dtelecom_network.node[30].content_store 	decision_ratio[30] 	0.00080247621231228
scalar dtelecom_network.node[31].core_layer 	interests[31] 	25543
scalar dtelecom_network.node[31].core_layer 	repo_load[31] 	11747
scalar dtelecom_network.node[31].core_layer 	data[31] 	8847
scalar dtelecom_network.node[31].content_store 	p_hit[31] 	0.19367341345966
scalar dtelecom_network.node[31].content_store 	hits[31] 	4947
scalar dtelecom_network.node[31].content_store 	misses[31] 	20596
scalar dtelecom_network.node[31].content_store 	decision_yes[31] 	19
scalar dtelecom_network.node[31].content_store 	decision_no[31] 	20575
scalar dtelecom_network.node[31].content_store 	decision_ratio[31] 	0.00092259881518889
scalar dtelecom_network.node[32].core_layer 	interests[32] 	12894
scalar dtelecom_network.node[32].core_layer 	data[32] 	8745
scalar dtelecom_network.node[32].content_store 	p_hit[32] 	0.32185512641539
scalar dtelecom_network.node[32].content_store 	hits[32] 	4150
scalar dtelecom_network.node[32].content_store 	misses[32] 	8744
scalar dtelecom_network.node[32].content_store 	decision_yes[32] 	11
scalar dtelecom_network.node[32].content_store 	decision_no[32] 	8734
scalar dtelecom_network.node[32].content_store 	decision_ratio[32] 	0.0012578616352201
scalar dtelecom_network.node[33].core_layer 	interests[33] 	14223
scalar dtelecom_network.node[33].core_layer 	data[33] 	9095
scalar dtelecom_network.node[33].content_store 	p_hit[33] 	0.36047247416157
scalar dtelecom_network.node[33].content_store 	hits[33] 	5127
scalar dtelecom_network.node[33].content_store 	misses[33] 	9096
scalar dtelecom_network.node[33].content_store 	decision_yes[33] 	6
scalar dtelecom_network.node[33].content_store 	decision_no[33] 	9089
scalar dtelecom_network.node[33].content_store 	decision_ratio[33] 	0.00065970313358988
scalar dtelecom_network.node[34].core_layer 	interests[34] 	0
scalar dtelecom_network.node[34].core_layer 	data[34] 	0
scalar dtelecom_network.node[34].content_store 	p_hit[34] 	-nan
scalar dtelecom_network.node[34].content_store 	hits[34] 	0
scalar dtelecom_network.node[34].content_store 	misses[34] 	0
scalar dtelecom_network.node[34].content_store 	decision_yes[34] 	0
scalar dtelecom_network.node[34].content_store 	decision_no[34] 	0
scalar dtelecom_network.node[34].content_store 	decision_ratio[34] 	0
scalar dtelecom_network.node[35].core_layer 	interests[35] 	0
scalar dtelecom_network.node[35].core_layer 	data[35] 	0
scalar dtelecom_network.node[35].content_store 	p_hit[35] 	-nan
scalar dtelecom_network.node[35].content_store 	hits[35] 	0
scalar dtelecom_network.node[35].content_store 	misses[35] 	0
scalar dtelecom_network.node[35].content_store 	decision_yes[35] 	0
scalar dtelecom_network.node[35].content_store 	decision_no[35] 	0
scalar dtelecom_network.node[35].content_store 	decision_ratio[35] 	0
scalar dtelecom_network.node[36].core_layer 	interests[36] 	12998
scalar dtelecom_network.node[36].core_layer 	data[36] 	8855
scalar dtelecom_network.node[36].content_store 	p_hit[36] 	0.31866440990922
scalar dtelecom_network.node[36].content_store 	hits[36] 	4142
scalar dtelecom_network.node[36].content_store 	misses[36] 	8856
scalar dtelecom_network.node[36].content_store 	decision_yes[36] 	10
scalar dtelecom_network.node[36].content_store 	decision_no[36] 	8845
scalar dtelecom_network.node[36].content_store 	decision_ratio[36] 	0.0011293054771316
scalar dtelecom_network.node[37].core_layer 	interests[37] 	13167
scalar dtelecom_network.node[37].core_layer 	data[37] 	8843
scalar dtelecom_network.node[37].content_store 	p_hit[37] 	0.32832080200501
scalar dtelecom_network.node[37].content_store 	hits[37] 	4323
scalar dtelecom_network.node[37].content_store 	misses[37] 	8844
scalar dtelecom_network.node[37].content_store 	decision_yes[37] 	11
scalar dtelecom_network.node[37].content_store 	decision_no[37] 	8832
scalar dtelecom_network.node[37].content_store 	decision_ratio[37] 	0.0012439217460138
scalar dtelecom_network.node[38].core_layer 	interests[38] 	0
scalar dtelecom_network.node[38].core_layer 	data[38] 	0
scalar dtelecom_network.node[38].content_store 	p_hit[38] 	-nan
scalar dtelecom_network.node[38].content_store 	hits[38] 	0
scalar dtelecom_network.node[38].content_store 	misses[38] 	0
scalar dtelecom_network.node[38].content_store 	decision_yes[38] 	0
scalar dtelecom_network.node[38].content_store 	decision_no[38] 	0
scalar dtelecom_network.node[38].content_store 	decision_ratio[38] 	0
scalar dtelecom_network.node[39].core_layer 	interests[39] 	13745
scalar dtelecom_network.node[39].core_layer 	repo_load[39] 	11084
scalar dtelecom_network.node[39].core_layer 	data[39] 	0
scalar dtelecom_network.node[39].content_store 	p_hit[39] 	0.19359767188068
scalar dtelecom_network.node[39].content_store 	hits[39] 	2661
scalar dtelecom_network.node[39].content_store 	misses[39] 	11084
scalar dtelecom_network.node[39].content_store 	decision_yes[39] 	20
scalar dtelecom_network.node[39].content_store 	decision_no[39] 	11064
scalar dtelecom_network.node[39].content_store 	decision_ratio[39] 	0.0018044027426922
scalar dtelecom_network.node[40].core_layer 	interests[40] 	14770
scalar dtelecom_network.node[40].core_layer 	data[40] 	9168
scalar dtelecom_network.node[40].content_store 	p_hit[40] 	0.37928232904536
scalar dtelecom_network.node[40].content_store 	hits[40] 	5602
scalar dtelecom_network.node[40].content_store 	misses[40] 	9168
scalar dtelecom_network.node[40].content_store 	decision_yes[40] 	7
scalar dtelecom_network.node[40].content_store 	decision_no[40] 	9161
scalar dtelecom_network.node[40].content_store 	decision_ratio[40] 	0.00076352530541012
scalar dtelecom_network.node[41].core_layer 	interests[41] 	0
scalar dtelecom_network.node[41].core_layer 	data[41] 	0
scalar dtelecom_network.node[41].content_store 	p_hit[41] 	-nan
scalar dtelecom_network.node[41].content_store 	hits[41] 	0
scalar dtelecom_network.node[41].content_store 	misses[41] 	0
scalar dtelecom_network.node[41].content_store 	decision_yes[41] 	0
scalar dtelecom_network.node[41].content_store 	decision_no[41] 	0
scalar dtelecom_network.node[41].content_store 	decision_ratio[41] 	0
scalar dtelecom_network.node[42].core_layer 	interests[42] 	13542
scalar dtelecom_network.node[42].core_layer 	data[42] 	8884
scalar dtelecom_network.node[42].content_store 	p_hit[42] 	0.34396691773741
scalar dtelecom_network.node[42].content_store 	hits[42] 	4658
scalar dtelecom_network.node[42].content_store 	misses[42] 	8884
scalar dtelecom_network.node[42].content_store 	decision_yes[42] 	5
scalar dtelecom_network.node[42].content_store 	decision_no[42] 	8879
scalar dtelecom_network.node[42].content_store 	decision_ratio[42] 	0.00056280954524989
scalar dtelecom_network.node[43].core_layer 	interests[43] 	0
scalar dtelecom_network.node[43].core_layer 	data[43] 	0
scalar dtelecom_network.node[43].content_store 	p_hit[43] 	-nan
scalar dtelecom_network.node[43].content_store 	hits[43] 	0
scalar dtelecom_network.node[43].content_store 	misses[43] 	0
scalar dtelecom_network.node[43].content_store 	decision_yes[43] 	0
scalar dtelecom_network.node[43].content_store 	decision_no[43] 	0
scalar dtelecom_network.node[43].content_store 	decision_ratio[43] 	0
scalar dtelecom_network.node[44].core_layer 	interests[44] 	13207
scalar dtelecom_network.node[44].core_layer 	repo_load[44] 	10938
scalar dtelecom_network.node[44].core_layer 	data[44] 	0
scalar dtelecom_network.node[44].content_store 	p_hit[44] 	0.1718028318316
scalar dtelecom_network.node[44].content_store 	hits[44] 	2269
scalar dtelecom_network.node[44].content_store 	misses[44] 	10938
scalar dtelecom_network.node[44].content_store 	decision_yes[44] 	28
scalar dtelecom_network.node[44].content_store 	decision_no[44] 	10910
scalar dtelecom_network.node[44].content_store 	decision_ratio[44] 	0.0025598829767782
scalar dtelecom_network.node[45].core_layer 	interests[45] 	25777
scalar dtelecom_network.node[45].core_layer 	repo_load[45] 	12148
scalar dtelecom_network.node[45].core_layer 	data[45] 	8630
scalar dtelecom_network.node[45].content_store 	p_hit[45] 	0.19385498700392
scalar dtelecom_network.node[45].content_store 	hits[45] 	4997
scalar dtelecom_network.node[45].content_store 	misses[45] 	20780
scalar dtelecom_network.node[45].content_store 	decision_yes[45] 	17
scalar dtelecom_network.node[45].content_store 	decision_no[45] 	20761
scalar dtelecom_network.node[45].content_store 	decision_ratio[45] 	0.00081817306766773
scalar dtelecom_network.node[46].core_layer 	interests[46] 	13331
scalar dtelecom_network.node[46].core_layer 	data[46] 	8765
scalar dtelecom_network.node[46].content_store 	p_hit[46] 	0.34243492611207
scalar dtelecom_network.node[46].content_store 	hits[46] 	4565
scalar dtelecom_network.node[46].content_store 	misses[46] 	8766
scalar dtelecom_network.node[46].content_store 	decision_yes[46] 	5
scalar dtelecom_network.node[46].content_store 	decision_no[46] 	8760
scalar dtelecom_network.node[46].content_store 	decision_ratio[46] 	0.00057045065601825
scalar dtelecom_network.node[47].core_layer 	interests[47] 	0
scalar dtelecom_network.node[47].core_layer 	data[47] 	0
scalar dtelecom_network.node[47].content_store 	p_hit[47] 	-nan
scalar dtelecom_network.node[47].content_store 	hits[47] 	0
scalar dtelecom_network.node[47].content_store 	misses[47] 	0
scalar dtelecom_network.node[47].content_store 	decision_yes[47] 	0
scalar dtelecom_network.node[47].content_store 	decision_no[47] 	0
scalar dtelecom_network.node[47].content_store 	decision_ratio[47] 	0
scalar dtelecom_network.node[48].core_layer 	interests[48] 	13084
scalar dtelecom_network.node[48].core_layer 	data[48] 	8800
scalar dtelecom_network.node[48].content_store 	p_hit[48] 	0.3274228064812
scalar dtelecom_network.node[48].content_store 	hits[48] 	4284
scalar dtelecom_network.node[48].content_store 	misses[48] 	8800
scalar dtelecom_network.node[48].content_store 	decision_yes[48] 	5
scalar dtelecom_network.node[48].content_store 	decision_no[48] 	8795
scalar dtelecom_network.node[48].content_store 	decision_ratio[48] 	0.00056818181818182
scalar dtelecom_network.node[49].core_layer 	interests[49] 	12969
scalar dtelecom_network.node[49].core_layer 	data[49] 	8914
scalar dtelecom_network.node[49].content_store 	p_hit[49] 	0.3126686714473
scalar dtelecom_network.node[49].content_store 	hits[49] 	4055
scalar dtelecom_network.node[49].content_store 	misses[49] 	8914
scalar dtelecom_network.node[49].content_store 	decision_yes[49] 	10
scalar dtelecom_network.node[49].content_store 	decision_no[49] 	8904
scalar dtelecom_network.node[49].content_store 	decision_ratio[49] 	0.0011218308279112
scalar dtelecom_network.node[50].core_layer 	interests[50] 	24650
scalar dtelecom_network.node[50].core_layer 	repo_load[50] 	11292
scalar dtelecom_network.node[50].core_layer 	data[50] 	8676
scalar dtelecom_network.node[50].content_store 	p_hit[50] 	0.1898985801217
scalar dtelecom_network.node[50].content_store 	hits[50] 	4681
scalar dtelecom_network.node[50].content_store 	misses[50] 	19969
scalar dtelecom_network.node[50].content_store 	decision_yes[50] 	18
scalar dtelecom_network.node[50].content_store 	decision_no[50] 	19950
scalar dtelecom_network.node[50].content_store 	decision_ratio[50] 	0.00090144230769231
scalar dtelecom_network.node[51].core_layer 	interests[51] 	13516
scalar dtelecom_network.node[51].core_layer 	data[51] 	8827
scalar dtelecom_network.node[51].content_store 	p_hit[51] 	0.3469961527079
scalar dtelecom_network.node[51].content_store 	hits[51] 	4690
scalar dtelecom_network.node[51].content_store 	misses[51] 	8826
scalar dtelecom_network.node[51].content_store 	decision_yes[51] 	11
scalar dtelecom_network.node[51].content_store 	decision_no[51] 	8816
scalar dtelecom_network.node[51].content_store 	decision_ratio[51] 	0.0012461765039085
scalar dtelecom_network.node[52].core_layer 	interests[52] 	0
scalar dtelecom_network.node[52].core_layer 	data[52] 	0
scalar dtelecom_network.node[52].content_store 	p_hit[52] 	-nan
scalar dtelecom_network.node[52].content_store 	hits[52] 	0
scalar dtelecom_network.node[52].content_store 	misses[52] 	0
scalar dtelecom_network.node[52].content_store 	decision_yes[52] 	0
scalar dtelecom_network.node[52].content_store 	decision_no[52] 	0
scalar dtelecom_network.node[52].content_store 	decision_ratio[52] 	0
scalar dtelecom_network.node[53].core_layer 	interests[53] 	13285
scalar dtelecom_network.node[53].core_layer 	data[53] 	8980
scalar dtelecom_network.node[53].content_store 	p_hit[53] 	0.32389913436206
scalar dtelecom_network.node[53].content_store 	hits[53] 	4303
scalar dtelecom_network.node[53].content_store 	misses[53] 	8982
scalar dtelecom_network.node[53].content_store 	decision_yes[53] 	9
scalar dtelecom_network.node[53].content_store 	decision_no[53] 	8971
scalar dtelecom_network.node[53].content_store 	decision_ratio[53] 	0.0010022271714922
scalar dtelecom_network.node[54].core_layer 	interests[54] 	13592
scalar dtelecom_network.node[54].core_layer 	data[54] 	8963
scalar dtelecom_network.node[54].content_store 	p_hit[54] 	0.34056798116539
scalar dtelecom_network.node[54].content_store 	hits[54] 	4629
scalar dtelecom_network.node[54].content_store 	misses[54] 	8963
scalar dtelecom_network.node[54].content_store 	decision_yes[54] 	6
scalar dtelecom_network.node[54].content_store 	decision_no[54] 	8957
scalar dtelecom_network.node[54].content_store 	decision_ratio[54] 	0.00066941872141024
scalar dtelecom_network.node[55].core_layer 	interests[55] 	25806
scalar dtelecom_network.node[55].core_layer 	repo_load[55] 	12095
scalar dtelecom_network.node[55].core_layer 	data[55] 	8812
scalar dtelecom_network.node[55].content_store 	p_hit[55] 	0.18983957219251
scalar dtelecom_network.node[55].content_store 	hits[55] 	4899
scalar dtelecom_network.node[55].content_store 	misses[55] 	20907
scalar dtelecom_network.node[55].content_store 	decision_yes[55] 	17
scalar dtelecom_network.node[55].content_store 	decision_no[55] 	20890
scalar dtelecom_network.node[55].content_store 	decision_ratio[55] 	0.00081312479073994
scalar dtelecom_network.node[56].core_layer 	interests[56] 	13164
scalar dtelecom_network.node[56].core_layer 	data[56] 	8748
scalar dtelecom_network.node[56].content_store 	p_hit[56] 	0.33546034639927
scalar dtelecom_network.node[56].content_store 	hits[56] 	4416
scalar dtelecom_network.node[56].content_store 	misses[56] 	8748
scalar dtelecom_network.node[56].content_store 	decision_yes[56] 	7
scalar dtelecom_network.node[56].content_store 	decision_no[56] 	8741
scalar dtelecom_network.node[56].content_store 	decision_ratio[56] 	0.00080018289894833
scalar dtelecom_network.node[57].core_layer 	interests[57] 	12920
scalar dtelecom_network.node[57].core_layer 	data[57] 	8884
scalar dtelecom_network.node[57].content_store 	p_hit[57] 	0.31230650154799
scalar dtelecom_network.node[57].content_store 	hits[57] 	4035
scalar dtelecom_network.node[57].content_store 	misses[57] 	8885
scalar dtelecom_network.node[57].content_store 	decision_yes[57] 	6
scalar dtelecom_network.node[57].content_store 	decision_no[57] 	8878
scalar dtelecom_network.node[57].content_store 	decision_ratio[57] 	0.00067537145429986
scalar dtelecom_network.node[58].core_layer 	interests[58] 	13525
scalar dtelecom_network.node[58].core_layer 	data[58] 	8929
scalar dtelecom_network.node[58].content_store 	p_hit[58] 	0.33981515711645
scalar dtelecom_network.node[58].content_store 	hits[58] 	4596
scalar dtelecom_network.node[58].content_store 	misses[58] 	8929
scalar dtelecom_network.node[58].content_store 	decision_yes[58] 	8
scalar dtelecom_network.node[58].content_store 	decision_no[58] 	8921
scalar dtelecom_network.node[58].content_store 	decision_ratio[58] 	0.00089595699406428
scalar dtelecom_network.node[59].core_layer 	interests[59] 	14879
scalar dtelecom_network.node[59].core_layer 	data[59] 	8777
scalar dtelecom_network.node[59].content_store 	p_hit[59] 	0.41010820619665
scalar dtelecom_network.node[59].content_store 	hits[59] 	6102
scalar dtelecom_network.node[59].content_store 	misses[59] 	8777
scalar dtelecom_network.node[59].content_store 	decision_yes[59] 	4
scalar dtelecom_network.node[59].content_store 	decision_no[59] 	8773
scalar dtelecom_network.node[59].content_store 	decision_ratio[59] 	0.0004557365842543
scalar dtelecom_network.node[60].core_layer 	interests[60] 	0
scalar dtelecom_network.node[60].core_layer 	data[60] 	0
scalar dtelecom_network.node[60].content_store 	p_hit[60] 	-nan
scalar dtelecom_network.node[60].content_store 	hits[60] 	0
scalar dtelecom_network.node[60].content_store 	misses[60] 	0
scalar dtelecom_network.node[60].content_store 	decision_yes[60] 	0
scalar dtelecom_network.node[60].content_store 	decision_no[60] 	0
scalar dtelecom_network.node[60].content_store 	decision_ratio[60] 	0
scalar dtelecom_network.node[61].core_layer 	interests[61] 	14132
scalar dtelecom_network.node[61].core_layer 	repo_load[61] 	11205
scalar dtelecom_network.node[61].core_layer 	data[61] 	0
scalar dtelecom_network.node[61].content_store 	p_hit[61] 	0.20711859609397
scalar dtelecom_network.node[61].content_store 	hits[61] 	2927
scalar dtelecom_network.node[61].content_store 	misses[61] 	11205
scalar dtelecom_network.node[61].content_store 	decision_yes[61] 	25
scalar dtelecom_network.node[61].content_store 	decision_no[61] 	11180
scalar dtelecom_network.node[61].content_store 	decision_ratio[61] 	0.0022311468094601
scalar dtelecom_network.node[62].core_layer 	interests[62] 	25076
scalar dtelecom_network.node[62].core_layer 	repo_load[62] 	11897
scalar dtelecom_network.node[62].core_layer 	data[62] 	8840
scalar dtelecom_network.node[62].content_store 	p_hit[62] 	0.17299409794226
scalar dtelecom_network.node[62].content_store 	hits[62] 	4338
scalar dtelecom_network.node[62].content_store 	misses[62] 	20738
scalar dtelecom_network.node[62].content_store 	decision_yes[62] 	24
scalar dtelecom_network.node[62].content_store 	decision_no[62] 	20713
scalar dtelecom_network.node[62].content_store 	decision_ratio[62] 	0.0011573515937696
scalar dtelecom_network.node[63].core_layer 	interests[63] 	0
scalar dtelecom_network.node[63].core_layer 	data[63] 	0
scalar dtelecom_network.node[63].content_store 	p_hit[63] 	-nan
scalar dtelecom_network.node[63].content_store 	hits[63] 	0
scalar dtelecom_network.node[63].content_store 	misses[63] 	0
scalar dtelecom_network.node[63].content_store 	decision_yes[63] 	0
scalar dtelecom_network.node[63].content_store 	decision_no[63] 	0
scalar dtelecom_network.node[63].content_store 	decision_ratio[63] 	0
scalar dtelecom_network.node[64].core_layer 	interests[64] 	0
scalar dtelecom_network.node[64].core_layer 	data[64] 	0
scalar dtelecom_network.node[64].content_store 	p_hit[64] 	-nan
scalar dtelecom_network.node[64].content_store 	hits[64] 	0
scalar dtelecom_network.node[64].content_store 	misses[64] 	0
scalar dtelecom_network.node[64].content_store 	decision_yes[64] 	0
scalar dtelecom_network.node[64].content_store 	decision_no[64] 	0
scalar dtelecom_network.node[64].content_store 	decision_ratio[64] 	0
scalar dtelecom_network.node[65].core_layer 	interests[65] 	219
scalar dtelecom_network.node[65].core_layer 	data[65] 	31
scalar dtelecom_network.node[65].content_store 	p_hit[65] 	0.85844748858447
scalar dtelecom_network.node[65].content_store 	hits[65] 	188
scalar dtelecom_network.node[65].content_store 	misses[65] 	31
scalar dtelecom_network.node[65].content_store 	decision_yes[65] 	0
scalar dtelecom_network.node[65].content_store 	decision_no[65] 	31
scalar dtelecom_network.node[65].content_store 	decision_ratio[65] 	0
scalar dtelecom_network.node[66].core_layer 	interests[66] 	12606
scalar dtelecom_network.node[66].core_layer 	data[66] 	8867
scalar dtelecom_network.node[66].content_store 	p_hit[66] 	0.29636680945581
scalar dtelecom_network.node[66].content_store 	hits[66] 	3736
scalar dtelecom_network.node[66].content_store 	misses[66] 	8870
scalar dtelecom_network.node[66].content_store 	decision_yes[66] 	7
scalar dtelecom_network.node[66].content_store 	decision_no[66] 	8860
scalar dtelecom_network.node[66].content_store 	decision_ratio[66] 	0.00078944400586444
scalar dtelecom_network.node[67].core_layer 	interests[67] 	12399
scalar dtelecom_network.node[67].core_layer 	data[67] 	8619
scalar dtelecom_network.node[67].content_store 	p_hit[67] 	0.3042180821034
scalar dtelecom_network.node[67].content_store 	hits[67] 	3772
scalar dtelecom_network.node[67].content_store 	misses[67] 	8627
scalar dtelecom_network.node[67].content_store 	decision_yes[67] 	5
scalar dtelecom_network.node[67].content_store 	decision_no[67] 	8614
scalar dtelecom_network.node[67].content_store 	decision_ratio[67] 	0.00058011370228565
scalar dtelecom_network.client[3] 	hdistance[3] 	1.3443415553552
scalar dtelecom_network.client[3] 	downloads[3] 	12203
scalar dtelecom_network.client[3] 	avg_time[3] 	0.013008484913
scalar dtelecom_network.client[4] 	hdistance[4] 	1.3089751110366
scalar dtelecom_network.client[4] 	downloads[4] 	11933
scalar dtelecom_network.client[4] 	avg_time[4] 	0.049557528897
scalar dtelecom_network.client[8] 	hdistance[8] 	1.7575329957666
scalar dtelecom_network.client[8] 	downloads[8] 	12047
scalar dtelecom_network.client[8] 	avg_time[8] 	0.017407069412
scalar dtelecom_network.client[9] 	hdistance[9] 	1.6438003488082
scalar dtelecom_network.client[9] 	downloads[9] 	12041
scalar dtelecom_network.client[9] 	avg_time[9] 	0.01616401968
scalar dtelecom_network.client[17] 	hdistance[17] 	1.7306204809147
scalar dtelecom_network.client[17] 	downloads[17] 	11894
scalar dtelecom_network.client[17] 	avg_time[17] 	0.01545902388
scalar dtelecom_network.client[22] 	hdistance[22] 	1.7856902639987
scalar dtelecom_network.client[22] 	downloads[22] 	11894
scalar dtelecom_network.client[22] 	avg_time[22] 	0.016471658346
scalar dtelecom_network.client[23] 	hdistance[23] 	1.5996842017784
scalar dtelecom_network.client[23] 	downloads[23] 	12033
scalar dtelecom_network.client[23] 	avg_time[23] 	0.010565357019
scalar dtelecom_network.client[28] 	hdistance[28] 	1.6632834306014
scalar dtelecom_network.client[28] 	downloads[28] 	11823
scalar dtelecom_network.client[28] 	avg_time[28] 	0.018016285378
scalar dtelecom_network.client[30] 	hdistance[30] 	1.8166425593465
scalar dtelecom_network.client[30] 	downloads[30] 	11753
scalar dtelecom_network.client[30] 	avg_time[30] 	0.015899942521
scalar dtelecom_network.client[31] 	hdistance[31] 	1.7650917545462
scalar dtelecom_network.client[31] 	downloads[31] 	12043
scalar dtelecom_network.client[31] 	avg_time[31] 	0.018721671194
scalar dtelecom_network.client[32] 	hdistance[32] 	1.8107076192092
scalar dtelecom_network.client[32] 	downloads[32] 	11786
scalar dtelecom_network.client[32] 	avg_time[32] 	0.014593439329
scalar dtelecom_network.client[33] 	hdistance[33] 	1.7097599207986
scalar dtelecom_network.client[33] 	downloads[33] 	12121
scalar dtelecom_network.client[33] 	avg_time[33] 	0.016009573694
scalar dtelecom_network.client[36] 	hdistance[36] 	1.79884286433
scalar dtelecom_network.client[36] 	downloads[36] 	11926
scalar dtelecom_network.client[36] 	avg_time[36] 	0.015953028595
scalar dtelecom_network.client[37] 	hdistance[37] 	1.7115416736262
scalar dtelecom_network.client[37] 	downloads[37] 	11974
scalar dtelecom_network.client[37] 	avg_time[37] 	0.015571667817
scalar dtelecom_network.client[40] 	hdistance[40] 	1.6150571738586
scalar dtelecom_network.client[40] 	downloads[40] 	11981
scalar dtelecom_network.client[40] 	avg_time[40] 	0.016403801262
scalar dtelecom_network.client[42] 	hdistance[42] 	1.7875716540666
scalar dtelecom_network.client[42] 	downloads[42] 	12037
scalar dtelecom_network.client[42] 	avg_time[42] 	0.01766246354
scalar dtelecom_network.client[45] 	hdistance[45] 	1.6402058376919
scalar dtelecom_network.client[45] 	downloads[45] 	11854
scalar dtelecom_network.client[45] 	avg_time[45] 	0.012536318273
scalar dtelecom_network.client[46] 	hdistance[46] 	1.7054794520548
scalar dtelecom_network.client[46] 	downloads[46] 	11972
scalar dtelecom_network.client[46] 	avg_time[46] 	0.017486266441
scalar dtelecom_network.client[48] 	hdistance[48] 	1.799367825653
scalar dtelecom_network.client[48] 	downloads[48] 	12022
scalar dtelecom_network.client[48] 	avg_time[48] 	0.016449886822
scalar dtelecom_network.client[49] 	hdistance[49] 	1.741657606423
scalar dtelecom_network.client[49] 	downloads[49] 	11957
scalar dtelecom_network.client[49] 	avg_time[49] 	0.015498376063
scalar dtelecom_network.client[50] 	hdistance[50] 	1.7566652560305
scalar dtelecom_network.client[50] 	downloads[50] 	11815
scalar dtelecom_network.client[50] 	avg_time[50] 	0.015855764997
scalar dtelecom_network.client[51] 	hdistance[51] 	1.6661380519155
scalar dtelecom_network.client[51] 	downloads[51] 	11981
scalar dtelecom_network.client[51] 	avg_time[51] 	0.015283214901
scalar dtelecom_network.client[53] 	hdistance[53] 	1.7292181069959
scalar dtelecom_network.client[53] 	downloads[53] 	12150
scalar dtelecom_network.client[53] 	avg_time[53] 	0.014690246521
scalar dtelecom_network.client[54] 	hdistance[54] 	1.6750757637808
scalar dtelecom_network.client[54] 	downloads[54] 	12209
scalar dtelecom_network.client[54] 	avg_time[54] 	0.016402099743
scalar dtelecom_network.client[55] 	hdistance[55] 	1.7518187830688
scalar dtelecom_network.client[55] 	downloads[55] 	12096
scalar dtelecom_network.client[55] 	avg_time[55] 	0.02053402266
scalar dtelecom_network.client[56] 	hdistance[56] 	1.7114032150033
scalar dtelecom_network.client[56] 	downloads[56] 	11944
scalar dtelecom_network.client[56] 	avg_time[56] 	0.01538464181
scalar dtelecom_network.client[57] 	hdistance[57] 	1.8088504408584
scalar dtelecom_network.client[57] 	downloads[57] 	12022
scalar dtelecom_network.client[57] 	avg_time[57] 	0.015040519475
scalar dtelecom_network.client[58] 	hdistance[58] 	1.7749479816896
scalar dtelecom_network.client[58] 	downloads[58] 	12015
scalar dtelecom_network.client[58] 	avg_time[58] 	0.017839419694
scalar dtelecom_network.client[59] 	hdistance[59] 	1.7218315754227
scalar dtelecom_network.client[59] 	downloads[59] 	11946
scalar dtelecom_network.client[59] 	avg_time[59] 	0.054779242741
scalar dtelecom_network.client[62] 	hdistance[62] 	2.1479113030479
scalar dtelecom_network.client[62] 	downloads[62] 	12041
scalar dtelecom_network.client[62] 	avg_time[62] 	0.054856532981
scalar dtelecom_network.client[66] 	hdistance[66] 	1.9327146171694
scalar dtelecom_network.client[66] 	downloads[66] 	12068
scalar dtelecom_network.client[66] 	avg_time[66] 	0.088420816598
scalar dtelecom_network.client[67] 	hdistance[67] 	1.9062760807878
scalar dtelecom_network.client[67] 	downloads[67] 	11982
scalar dtelecom_network.client[67] 	avg_time[67] 	0.072297609948
