version 2
run General-43-20160824-19:09:08-24543
attr D ffc0.05
attr F nrr
attr R lru
attr a 0.9
attr configname General
attr datetime 20160824-19:09:08
attr experiment General
attr inifile hw5115/scenario_C/omnetp.ini
attr iterationvars "$net=dtelecom, $rep=5, $a=0.9, $F=nrr, $D=ffc0.05, $R=lru, $window=60, $variance=0.05, $mytime=600"
attr iterationvars2 "$net=dtelecom, $rep=5, $a=0.9, $F=nrr, $D=ffc0.05, $R=lru, $window=60, $variance=0.05, $mytime=600, $repetition=0"
attr measurement "$net=dtelecom, $rep=5, $a=0.9, $F=nrr, $D=ffc0.05, $R=lru, $window=60, $variance=0.05, $mytime=600"
attr mytime 600
attr net dtelecom
attr network networks.${net=dtelecom}_network
attr processid 24543
attr rep 5
attr repetition 0
attr replication #0
attr resultdir results
attr runnumber 43
attr seedset 5
attr variance 0.05
attr window 60

scalar . 	a 	0.9
scalar . 	mytime 	600
scalar . 	rep 	5
scalar . 	variance 	0.05
scalar . 	window 	60
scalar dtelecom_network.content_distribution 	repo-0 	41
scalar dtelecom_network.content_distribution 	repo-1 	65
scalar dtelecom_network.content_distribution 	repo-2 	31
scalar dtelecom_network.content_distribution 	repo-3 	4
scalar dtelecom_network.content_distribution 	repo-4 	16
scalar dtelecom_network.content_distribution 	repo-5 	30
scalar dtelecom_network.content_distribution 	repo-6 	58
scalar dtelecom_network.content_distribution 	repo-7 	18
scalar dtelecom_network.content_distribution 	repo-8 	32
scalar dtelecom_network.content_distribution 	repo-9 	34
scalar dtelecom_network.content_distribution 	repo-10 	0
scalar dtelecom_network.content_distribution 	repo-11 	28
scalar dtelecom_network.content_distribution 	repo-12 	59
scalar dtelecom_network.content_distribution 	repo-13 	8
scalar dtelecom_network.content_distribution 	repo-14 	37
scalar dtelecom_network.content_distribution 	repo-15 	17
scalar dtelecom_network.content_distribution 	client-0 	46
scalar dtelecom_network.content_distribution 	client-1 	30
scalar dtelecom_network.content_distribution 	client-2 	8
scalar dtelecom_network.content_distribution 	client-3 	49
scalar dtelecom_network.content_distribution 	client-4 	66
scalar dtelecom_network.content_distribution 	client-5 	58
scalar dtelecom_network.content_distribution 	client-6 	32
scalar dtelecom_network.content_distribution 	client-7 	40
scalar dtelecom_network.content_distribution 	client-8 	42
scalar dtelecom_network.content_distribution 	client-9 	45
scalar dtelecom_network.content_distribution 	client-10 	33
scalar dtelecom_network.content_distribution 	client-11 	28
scalar dtelecom_network.content_distribution 	client-12 	3
scalar dtelecom_network.content_distribution 	client-13 	57
scalar dtelecom_network.content_distribution 	client-14 	50
scalar dtelecom_network.content_distribution 	client-15 	17
scalar dtelecom_network.content_distribution 	client-16 	59
scalar dtelecom_network.content_distribution 	client-17 	48
scalar dtelecom_network.content_distribution 	client-18 	23
scalar dtelecom_network.content_distribution 	client-19 	22
scalar dtelecom_network.content_distribution 	client-20 	67
scalar dtelecom_network.content_distribution 	client-21 	62
scalar dtelecom_network.content_distribution 	client-22 	56
scalar dtelecom_network.content_distribution 	client-23 	55
scalar dtelecom_network.content_distribution 	client-24 	53
scalar dtelecom_network.content_distribution 	client-25 	36
scalar dtelecom_network.content_distribution 	client-26 	51
scalar dtelecom_network.content_distribution 	client-27 	37
scalar dtelecom_network.content_distribution 	client-28 	54
scalar dtelecom_network.content_distribution 	client-29 	4
scalar dtelecom_network.content_distribution 	client-30 	31
scalar dtelecom_network.content_distribution 	client-31 	9
scalar dtelecom_network.content_distribution 	repo-0_card 	6289
scalar dtelecom_network.content_distribution 	repo-0_price 	0
scalar dtelecom_network.content_distribution 	repo-1_card 	6243
scalar dtelecom_network.content_distribution 	repo-1_price 	0
scalar dtelecom_network.content_distribution 	repo-2_card 	6284
scalar dtelecom_network.content_distribution 	repo-2_price 	0
scalar dtelecom_network.content_distribution 	repo-3_card 	6071
scalar dtelecom_network.content_distribution 	repo-3_price 	0
scalar dtelecom_network.content_distribution 	repo-4_card 	6173
scalar dtelecom_network.content_distribution 	repo-4_price 	0
scalar dtelecom_network.content_distribution 	repo-5_card 	6278
scalar dtelecom_network.content_distribution 	repo-5_price 	0
scalar dtelecom_network.content_distribution 	repo-6_card 	6354
scalar dtelecom_network.content_distribution 	repo-6_price 	0
scalar dtelecom_network.content_distribution 	repo-7_card 	6254
scalar dtelecom_network.content_distribution 	repo-7_price 	0
scalar dtelecom_network.content_distribution 	repo-8_card 	6276
scalar dtelecom_network.content_distribution 	repo-8_price 	0
scalar dtelecom_network.content_distribution 	repo-9_card 	6208
scalar dtelecom_network.content_distribution 	repo-9_price 	0
scalar dtelecom_network.content_distribution 	repo-10_card 	6278
scalar dtelecom_network.content_distribution 	repo-10_price 	0
scalar dtelecom_network.content_distribution 	repo-11_card 	6229
scalar dtelecom_network.content_distribution 	repo-11_price 	0
scalar dtelecom_network.content_distribution 	repo-12_card 	6192
scalar dtelecom_network.content_distribution 	repo-12_price 	0
scalar dtelecom_network.content_distribution 	repo-13_card 	6316
scalar dtelecom_network.content_distribution 	repo-13_price 	0
scalar dtelecom_network.content_distribution 	repo-14_card 	6239
scalar dtelecom_network.content_distribution 	repo-14_price 	0
scalar dtelecom_network.content_distribution 	repo-15_card 	6316
scalar dtelecom_network.content_distribution 	repo-15_price 	0
scalar dtelecom_network.statistics 	stabilization_time 	4488
scalar dtelecom_network.statistics 	p_hit 	0.2766380214221
scalar dtelecom_network.statistics 	interests 	12919.941176471
scalar dtelecom_network.statistics 	data 	7271.5147058824
scalar dtelecom_network.statistics 	hdistance 	1.7853839131197
scalar dtelecom_network.statistics 	avg_time 	0.021109261986
scalar dtelecom_network.statistics 	downloads 	384076
scalar dtelecom_network.statistics 	total_cost 	0
scalar dtelecom_network.statistics 	total_replicas 	100000
scalar dtelecom_network.statistics 	inner_hit 	0.50220268905113
scalar dtelecom_network.node[0].core_layer 	interests[0] 	15047
scalar dtelecom_network.node[0].core_layer 	repo_load[0] 	11665
scalar dtelecom_network.node[0].core_layer 	data[0] 	0
scalar dtelecom_network.node[0].core_layer 	repo_int[0] 	191192
scalar dtelecom_network.node[0].content_store 	p_hit[0] 	0.22476241111185
scalar dtelecom_network.node[0].content_store 	hits[0] 	3382
scalar dtelecom_network.node[0].content_store 	misses[0] 	11665
scalar dtelecom_network.node[0].content_store 	decision_yes[0] 	24
scalar dtelecom_network.node[0].content_store 	decision_no[0] 	11641
scalar dtelecom_network.node[0].content_store 	decision_ratio[0] 	0.0020574367766824
scalar dtelecom_network.node[1].core_layer 	interests[1] 	174276
scalar dtelecom_network.node[1].core_layer 	data[1] 	163192
scalar dtelecom_network.node[1].content_store 	p_hit[1] 	0.063525671922697
scalar dtelecom_network.node[1].content_store 	hits[1] 	11071
scalar dtelecom_network.node[1].content_store 	misses[1] 	163205
scalar dtelecom_network.node[1].content_store 	decision_yes[1] 	73
scalar dtelecom_network.node[1].content_store 	decision_no[1] 	163119
scalar dtelecom_network.node[1].content_store 	decision_ratio[1] 	0.00044732584930634
scalar dtelecom_network.node[2].core_layer 	interests[2] 	9278
scalar dtelecom_network.node[2].core_layer 	data[2] 	6572
scalar dtelecom_network.node[2].content_store 	p_hit[2] 	0.29165768484587
scalar dtelecom_network.node[2].content_store 	hits[2] 	2706
scalar dtelecom_network.node[2].content_store 	misses[2] 	6572
scalar dtelecom_network.node[2].content_store 	decision_yes[2] 	8
scalar dtelecom_network.node[2].content_store 	decision_no[2] 	6564
scalar dtelecom_network.node[2].content_store 	decision_ratio[2] 	0.0012172854534388
scalar dtelecom_network.node[3].core_layer 	interests[3] 	20070
scalar dtelecom_network.node[3].core_layer 	data[3] 	8810
scalar dtelecom_network.node[3].content_store 	p_hit[3] 	0.56103637269557
scalar dtelecom_network.node[3].content_store 	hits[3] 	11260
scalar dtelecom_network.node[3].content_store 	misses[3] 	8810
scalar dtelecom_network.node[3].content_store 	decision_yes[3] 	5
scalar dtelecom_network.node[3].content_store 	decision_no[3] 	8805
scalar dtelecom_network.node[3].content_store 	decision_ratio[3] 	0.00056753688989784
scalar dtelecom_network.node[4].core_layer 	interests[4] 	63247
scalar dtelecom_network.node[4].core_layer 	repo_load[4] 	13586
scalar dtelecom_network.node[4].core_layer 	data[4] 	37023
scalar dtelecom_network.node[4].content_store 	p_hit[4] 	0.19969326608377
scalar dtelecom_network.node[4].content_store 	hits[4] 	12630
scalar dtelecom_network.node[4].content_store 	misses[4] 	50617
scalar dtelecom_network.node[4].content_store 	decision_yes[4] 	41
scalar dtelecom_network.node[4].content_store 	decision_no[4] 	50568
scalar dtelecom_network.node[4].content_store 	decision_ratio[4] 	0.00081013258511332
scalar dtelecom_network.node[5].core_layer 	interests[5] 	0
scalar dtelecom_network.node[5].core_layer 	data[5] 	0
scalar dtelecom_network.node[5].content_store 	p_hit[5] 	-nan
scalar dtelecom_network.node[5].content_store 	hits[5] 	0
scalar dtelecom_network.node[5].content_store 	misses[5] 	0
scalar dtelecom_network.node[5].content_store 	decision_yes[5] 	0
scalar dtelecom_network.node[5].content_store 	decision_no[5] 	0
scalar dtelecom_network.node[5].content_store 	decision_ratio[5] 	0
scalar dtelecom_network.node[6].core_layer 	interests[6] 	0
scalar dtelecom_network.node[6].core_layer 	data[6] 	0
scalar dtelecom_network.node[6].content_store 	p_hit[6] 	-nan
scalar dtelecom_network.node[6].content_store 	hits[6] 	0
scalar dtelecom_network.node[6].content_store 	misses[6] 	0
scalar dtelecom_network.node[6].content_store 	decision_yes[6] 	0
scalar dtelecom_network.node[6].content_store 	decision_no[6] 	0
scalar dtelecom_network.node[6].content_store 	decision_ratio[6] 	0
scalar dtelecom_network.node[7].core_layer 	interests[7] 	0
scalar dtelecom_network.node[7].core_layer 	data[7] 	0
scalar dtelecom_network.node[7].content_store 	p_hit[7] 	-nan
scalar dtelecom_network.node[7].content_store 	hits[7] 	0
scalar dtelecom_network.node[7].content_store 	misses[7] 	0
scalar dtelecom_network.node[7].content_store 	decision_yes[7] 	0
scalar dtelecom_network.node[7].content_store 	decision_no[7] 	0
scalar dtelecom_network.node[7].content_store 	decision_ratio[7] 	0
scalar dtelecom_network.node[8].core_layer 	interests[8] 	25373
scalar dtelecom_network.node[8].core_layer 	repo_load[8] 	11828
scalar dtelecom_network.node[8].core_layer 	data[8] 	8867
scalar dtelecom_network.node[8].content_store 	p_hit[8] 	0.18436921136641
scalar dtelecom_network.node[8].content_store 	hits[8] 	4678
scalar dtelecom_network.node[8].content_store 	misses[8] 	20695
scalar dtelecom_network.node[8].content_store 	decision_yes[8] 	27
scalar dtelecom_network.node[8].content_store 	decision_no[8] 	20668
scalar dtelecom_network.node[8].content_store 	decision_ratio[8] 	0.0013046629620681
scalar dtelecom_network.node[9].core_layer 	interests[9] 	14208
scalar dtelecom_network.node[9].core_layer 	data[9] 	9191
scalar dtelecom_network.node[9].content_store 	p_hit[9] 	0.35304054054054
scalar dtelecom_network.node[9].content_store 	hits[9] 	5016
scalar dtelecom_network.node[9].content_store 	misses[9] 	9192
scalar dtelecom_network.node[9].content_store 	decision_yes[9] 	7
scalar dtelecom_network.node[9].content_store 	decision_no[9] 	9184
scalar dtelecom_network.node[9].content_store 	decision_ratio[9] 	0.00076161462300076
scalar dtelecom_network.node[10].core_layer 	interests[10] 	0
scalar dtelecom_network.node[10].core_layer 	data[10] 	0
scalar dtelecom_network.node[10].content_store 	p_hit[10] 	-nan
scalar dtelecom_network.node[10].content_store 	hits[10] 	0
scalar dtelecom_network.node[10].content_store 	misses[10] 	0
scalar dtelecom_network.node[10].content_store 	decision_yes[10] 	0
scalar dtelecom_network.node[10].content_store 	decision_no[10] 	0
scalar dtelecom_network.node[10].content_store 	decision_ratio[10] 	0
scalar dtelecom_network.node[11].core_layer 	interests[11] 	0
scalar dtelecom_network.node[11].core_layer 	data[11] 	0
scalar dtelecom_network.node[11].content_store 	p_hit[11] 	-nan
scalar dtelecom_network.node[11].content_store 	hits[11] 	0
scalar dtelecom_network.node[11].content_store 	misses[11] 	0
scalar dtelecom_network.node[11].content_store 	decision_yes[11] 	0
scalar dtelecom_network.node[11].content_store 	decision_no[11] 	0
scalar dtelecom_network.node[11].content_store 	decision_ratio[11] 	0
scalar dtelecom_network.node[12].core_layer 	interests[12] 	0
scalar dtelecom_network.node[12].core_layer 	data[12] 	0
scalar dtelecom_network.node[12].content_store 	p_hit[12] 	-nan
scalar dtelecom_network.node[12].content_store 	hits[12] 	0
scalar dtelecom_network.node[12].content_store 	misses[12] 	0
scalar dtelecom_network.node[12].content_store 	decision_yes[12] 	0
scalar dtelecom_network.node[12].content_store 	decision_no[12] 	0
scalar dtelecom_network.node[12].content_store 	decision_ratio[12] 	0
scalar dtelecom_network.node[13].core_layer 	interests[13] 	0
scalar dtelecom_network.node[13].core_layer 	data[13] 	0
scalar dtelecom_network.node[13].content_store 	p_hit[13] 	-nan
scalar dtelecom_network.node[13].content_store 	hits[13] 	0
scalar dtelecom_network.node[13].content_store 	misses[13] 	0
scalar dtelecom_network.node[13].content_store 	decision_yes[13] 	0
scalar dtelecom_network.node[13].content_store 	decision_no[13] 	0
scalar dtelecom_network.node[13].content_store 	decision_ratio[13] 	0
scalar dtelecom_network.node[14].core_layer 	interests[14] 	0
scalar dtelecom_network.node[14].core_layer 	data[14] 	0
scalar dtelecom_network.node[14].content_store 	p_hit[14] 	-nan
scalar dtelecom_network.node[14].content_store 	hits[14] 	0
scalar dtelecom_network.node[14].content_store 	misses[14] 	0
scalar dtelecom_network.node[14].content_store 	decision_yes[14] 	0
scalar dtelecom_network.node[14].content_store 	decision_no[14] 	0
scalar dtelecom_network.node[14].content_store 	decision_ratio[14] 	0
scalar dtelecom_network.node[15].core_layer 	interests[15] 	0
scalar dtelecom_network.node[15].core_layer 	data[15] 	0
scalar dtelecom_network.node[15].content_store 	p_hit[15] 	-nan
scalar dtelecom_network.node[15].content_store 	hits[15] 	0
scalar dtelecom_network.node[15].content_store 	misses[15] 	0
scalar dtelecom_network.node[15].content_store 	decision_yes[15] 	0
scalar dtelecom_network.node[15].content_store 	decision_no[15] 	0
scalar dtelecom_network.node[15].content_store 	decision_ratio[15] 	0
scalar dtelecom_network.node[16].core_layer 	interests[16] 	14290
scalar dtelecom_network.node[16].core_layer 	repo_load[16] 	11087
scalar dtelecom_network.node[16].core_layer 	data[16] 	0
scalar dtelecom_network.node[16].content_store 	p_hit[16] 	0.22414275717285
scalar dtelecom_network.node[16].content_store 	hits[16] 	3203
scalar dtelecom_network.node[16].content_store 	misses[16] 	11087
scalar dtelecom_network.node[16].content_store 	decision_yes[16] 	24
scalar dtelecom_network.node[16].content_store 	decision_no[16] 	11063
scalar dtelecom_network.node[16].content_store 	decision_ratio[16] 	0.0021646973933436
scalar dtelecom_network.node[17].core_layer 	interests[17] 	26970
scalar dtelecom_network.node[17].core_layer 	repo_load[17] 	12339
scalar dtelecom_network.node[17].core_layer 	data[17] 	9523
scalar dtelecom_network.node[17].content_store 	p_hit[17] 	0.18939562476826
scalar dtelecom_network.node[17].content_store 	hits[17] 	5108
scalar dtelecom_network.node[17].content_store 	misses[17] 	21862
scalar dtelecom_network.node[17].content_store 	decision_yes[17] 	27
scalar dtelecom_network.node[17].content_store 	decision_no[17] 	21835
scalar dtelecom_network.node[17].content_store 	decision_ratio[17] 	0.0012350196688318
scalar dtelecom_network.node[18].core_layer 	interests[18] 	13489
scalar dtelecom_network.node[18].core_layer 	repo_load[18] 	10758
scalar dtelecom_network.node[18].core_layer 	data[18] 	0
scalar dtelecom_network.node[18].content_store 	p_hit[18] 	0.20246126473423
scalar dtelecom_network.node[18].content_store 	hits[18] 	2731
scalar dtelecom_network.node[18].content_store 	misses[18] 	10758
scalar dtelecom_network.node[18].content_store 	decision_yes[18] 	25
scalar dtelecom_network.node[18].content_store 	decision_no[18] 	10733
scalar dtelecom_network.node[18].content_store 	decision_ratio[18] 	0.0023238520171036
scalar dtelecom_network.node[19].core_layer 	interests[19] 	0
scalar dtelecom_network.node[19].core_layer 	data[19] 	0
scalar dtelecom_network.node[19].content_store 	p_hit[19] 	-nan
scalar dtelecom_network.node[19].content_store 	hits[19] 	0
scalar dtelecom_network.node[19].content_store 	misses[19] 	0
scalar dtelecom_network.node[19].content_store 	decision_yes[19] 	0
scalar dtelecom_network.node[19].content_store 	decision_no[19] 	0
scalar dtelecom_network.node[19].content_store 	decision_ratio[19] 	0
scalar dtelecom_network.node[20].core_layer 	interests[20] 	0
scalar dtelecom_network.node[20].core_layer 	data[20] 	0
scalar dtelecom_network.node[20].content_store 	p_hit[20] 	-nan
scalar dtelecom_network.node[20].content_store 	hits[20] 	0
scalar dtelecom_network.node[20].content_store 	misses[20] 	0
scalar dtelecom_network.node[20].content_store 	decision_yes[20] 	0
scalar dtelecom_network.node[20].content_store 	decision_no[20] 	0
scalar dtelecom_network.node[20].content_store 	decision_ratio[20] 	0
scalar dtelecom_network.node[21].core_layer 	interests[21] 	0
scalar dtelecom_network.node[21].core_layer 	data[21] 	0
scalar dtelecom_network.node[21].content_store 	p_hit[21] 	-nan
scalar dtelecom_network.node[21].content_store 	hits[21] 	0
scalar dtelecom_network.node[21].content_store 	misses[21] 	0
scalar dtelecom_network.node[21].content_store 	decision_yes[21] 	0
scalar dtelecom_network.node[21].content_store 	decision_no[21] 	0
scalar dtelecom_network.node[21].content_store 	decision_ratio[21] 	0
scalar dtelecom_network.node[22].core_layer 	interests[22] 	12941
scalar dtelecom_network.node[22].core_layer 	data[22] 	8900
scalar dtelecom_network.node[22].content_store 	p_hit[22] 	0.31226334904567
scalar dtelecom_network.node[22].content_store 	hits[22] 	4041
scalar dtelecom_network.node[22].content_store 	misses[22] 	8900
scalar dtelecom_network.node[22].content_store 	decision_yes[22] 	7
scalar dtelecom_network.node[22].content_store 	decision_no[22] 	8893
scalar dtelecom_network.node[22].content_store 	decision_ratio[22] 	0.00078651685393258
scalar dtelecom_network.node[23].core_layer 	interests[23] 	27173
scalar dtelecom_network.node[23].core_layer 	data[23] 	20286
scalar dtelecom_network.node[23].content_store 	p_hit[23] 	0.25326610974129
scalar dtelecom_network.node[23].content_store 	hits[23] 	6882
scalar dtelecom_network.node[23].content_store 	misses[23] 	20291
scalar dtelecom_network.node[23].content_store 	decision_yes[23] 	16
scalar dtelecom_network.node[23].content_store 	decision_no[23] 	20270
scalar dtelecom_network.node[23].content_store 	decision_ratio[23] 	0.0007887212856157
scalar dtelecom_network.node[24].core_layer 	interests[24] 	0
scalar dtelecom_network.node[24].core_layer 	data[24] 	0
scalar dtelecom_network.node[24].content_store 	p_hit[24] 	-nan
scalar dtelecom_network.node[24].content_store 	hits[24] 	0
scalar dtelecom_network.node[24].content_store 	misses[24] 	0
scalar dtelecom_network.node[24].content_store 	decision_yes[24] 	0
scalar dtelecom_network.node[24].content_store 	decision_no[24] 	0
scalar dtelecom_network.node[24].content_store 	decision_ratio[24] 	0
scalar dtelecom_network.node[25].core_layer 	interests[25] 	0
scalar dtelecom_network.node[25].core_layer 	data[25] 	0
scalar dtelecom_network.node[25].content_store 	p_hit[25] 	-nan
scalar dtelecom_network.node[25].content_store 	hits[25] 	0
scalar dtelecom_network.node[25].content_store 	misses[25] 	0
scalar dtelecom_network.node[25].content_store 	decision_yes[25] 	0
scalar dtelecom_network.node[25].content_store 	decision_no[25] 	0
scalar dtelecom_network.node[25].content_store 	decision_ratio[25] 	0
scalar dtelecom_network.node[26].core_layer 	interests[26] 	947
scalar dtelecom_network.node[26].core_layer 	data[26] 	410
scalar dtelecom_network.node[26].content_store 	p_hit[26] 	0.56705385427666
scalar dtelecom_network.node[26].content_store 	hits[26] 	537
scalar dtelecom_network.node[26].content_store 	misses[26] 	410
scalar dtelecom_network.node[26].content_store 	decision_yes[26] 	2
scalar dtelecom_network.node[26].content_store 	decision_no[26] 	408
scalar dtelecom_network.node[26].content_store 	decision_ratio[26] 	0.0048780487804878
scalar dtelecom_network.node[27].core_layer 	interests[27] 	0
scalar dtelecom_network.node[27].core_layer 	data[27] 	0
scalar dtelecom_network.node[27].content_store 	p_hit[27] 	-nan
scalar dtelecom_network.node[27].content_store 	hits[27] 	0
scalar dtelecom_network.node[27].content_store 	misses[27] 	0
scalar dtelecom_network.node[27].content_store 	decision_yes[27] 	0
scalar dtelecom_network.node[27].content_store 	decision_no[27] 	0
scalar dtelecom_network.node[27].content_store 	decision_ratio[27] 	0
scalar dtelecom_network.node[28].core_layer 	interests[28] 	26717
scalar dtelecom_network.node[28].core_layer 	repo_load[28] 	12617
scalar dtelecom_network.node[28].core_layer 	data[28] 	8717
scalar dtelecom_network.node[28].content_store 	p_hit[28] 	0.20148220234308
scalar dtelecom_network.node[28].content_store 	hits[28] 	5383
scalar dtelecom_network.node[28].content_store 	misses[28] 	21334
scalar dtelecom_network.node[28].content_store 	decision_yes[28] 	27
scalar dtelecom_network.node[28].content_store 	decision_no[28] 	21307
scalar dtelecom_network.node[28].content_store 	decision_ratio[28] 	0.0012655854504547
scalar dtelecom_network.node[29].core_layer 	interests[29] 	0
scalar dtelecom_network.node[29].core_layer 	data[29] 	0
scalar dtelecom_network.node[29].content_store 	p_hit[29] 	-nan
scalar dtelecom_network.node[29].content_store 	hits[29] 	0
scalar dtelecom_network.node[29].content_store 	misses[29] 	0
scalar dtelecom_network.node[29].content_store 	decision_yes[29] 	0
scalar dtelecom_network.node[29].content_store 	decision_no[29] 	0
scalar dtelecom_network.node[29].content_store 	decision_ratio[29] 	0
scalar dtelecom_network.node[30].core_layer 	interests[30] 	26838
scalar dtelecom_network.node[30].core_layer 	repo_load[30] 	12590
scalar dtelecom_network.node[30].core_layer 	data[30] 	9032
scalar dtelecom_network.node[30].content_store 	p_hit[30] 	0.19427677174156
scalar dtelecom_network.node[30].content_store 	hits[30] 	5214
scalar dtelecom_network.node[30].content_store 	misses[30] 	21624
scalar dtelecom_network.node[30].content_store 	decision_yes[30] 	39
scalar dtelecom_network.node[30].content_store 	decision_no[30] 	21583
scalar dtelecom_network.node[30].content_store 	decision_ratio[30] 	0.0018037184349274
scalar dtelecom_network.node[31].core_layer 	interests[31] 	25896
scalar dtelecom_network.node[31].core_layer 	repo_load[31] 	12055
scalar dtelecom_network.node[31].core_layer 	data[31] 	8845
scalar dtelecom_network.node[31].content_store 	p_hit[31] 	0.19284831634229
scalar dtelecom_network.node[31].content_store 	hits[31] 	4994
scalar dtelecom_network.node[31].content_store 	misses[31] 	20902
scalar dtelecom_network.node[31].content_store 	decision_yes[31] 	23
scalar dtelecom_network.node[31].content_store 	decision_no[31] 	20877
scalar dtelecom_network.node[31].content_store 	decision_ratio[31] 	0.0011004784688995
scalar dtelecom_network.node[32].core_layer 	interests[32] 	26000
scalar dtelecom_network.node[32].core_layer 	repo_load[32] 	12050
scalar dtelecom_network.node[32].core_layer 	data[32] 	9078
scalar dtelecom_network.node[32].content_store 	p_hit[32] 	0.18738461538462
scalar dtelecom_network.node[32].content_store 	hits[32] 	4872
scalar dtelecom_network.node[32].content_store 	misses[32] 	21128
scalar dtelecom_network.node[32].content_store 	decision_yes[32] 	26
scalar dtelecom_network.node[32].content_store 	decision_no[32] 	21102
scalar dtelecom_network.node[32].content_store 	decision_ratio[32] 	0.001230594471791
scalar dtelecom_network.node[33].core_layer 	interests[33] 	13501
scalar dtelecom_network.node[33].core_layer 	data[33] 	8872
scalar dtelecom_network.node[33].content_store 	p_hit[33] 	0.34286349159322
scalar dtelecom_network.node[33].content_store 	hits[33] 	4629
scalar dtelecom_network.node[33].content_store 	misses[33] 	8872
scalar dtelecom_network.node[33].content_store 	decision_yes[33] 	7
scalar dtelecom_network.node[33].content_store 	decision_no[33] 	8865
scalar dtelecom_network.node[33].content_store 	decision_ratio[33] 	0.00078899909828674
scalar dtelecom_network.node[34].core_layer 	interests[34] 	14776
scalar dtelecom_network.node[34].core_layer 	repo_load[34] 	11692
scalar dtelecom_network.node[34].core_layer 	data[34] 	0
scalar dtelecom_network.node[34].content_store 	p_hit[34] 	0.20871683811586
scalar dtelecom_network.node[34].content_store 	hits[34] 	3084
scalar dtelecom_network.node[34].content_store 	misses[34] 	11692
scalar dtelecom_network.node[34].content_store 	decision_yes[34] 	26
scalar dtelecom_network.node[34].content_store 	decision_no[34] 	11666
scalar dtelecom_network.node[34].content_store 	decision_ratio[34] 	0.0022237427300718
scalar dtelecom_network.node[35].core_layer 	interests[35] 	0
scalar dtelecom_network.node[35].core_layer 	data[35] 	0
scalar dtelecom_network.node[35].content_store 	p_hit[35] 	-nan
scalar dtelecom_network.node[35].content_store 	hits[35] 	0
scalar dtelecom_network.node[35].content_store 	misses[35] 	0
scalar dtelecom_network.node[35].content_store 	decision_yes[35] 	0
scalar dtelecom_network.node[35].content_store 	decision_no[35] 	0
scalar dtelecom_network.node[35].content_store 	decision_ratio[35] 	0
scalar dtelecom_network.node[36].core_layer 	interests[36] 	12683
scalar dtelecom_network.node[36].core_layer 	data[36] 	8727
scalar dtelecom_network.node[36].content_store 	p_hit[36] 	0.31183473941496
scalar dtelecom_network.node[36].content_store 	hits[36] 	3955
scalar dtelecom_network.node[36].content_store 	misses[36] 	8728
scalar dtelecom_network.node[36].content_store 	decision_yes[36] 	8
scalar dtelecom_network.node[36].content_store 	decision_no[36] 	8719
scalar dtelecom_network.node[36].content_store 	decision_ratio[36] 	0.00091669531339521
scalar dtelecom_network.node[37].core_layer 	interests[37] 	25902
scalar dtelecom_network.node[37].core_layer 	repo_load[37] 	12273
scalar dtelecom_network.node[37].core_layer 	data[37] 	8782
scalar dtelecom_network.node[37].content_store 	p_hit[37] 	0.18705119295807
scalar dtelecom_network.node[37].content_store 	hits[37] 	4845
scalar dtelecom_network.node[37].content_store 	misses[37] 	21057
scalar dtelecom_network.node[37].content_store 	decision_yes[37] 	23
scalar dtelecom_network.node[37].content_store 	decision_no[37] 	21032
scalar dtelecom_network.node[37].content_store 	decision_ratio[37] 	0.0010923771075754
scalar dtelecom_network.node[38].core_layer 	interests[38] 	0
scalar dtelecom_network.node[38].core_layer 	data[38] 	0
scalar dtelecom_network.node[38].content_store 	p_hit[38] 	-nan
scalar dtelecom_network.node[38].content_store 	hits[38] 	0
scalar dtelecom_network.node[38].content_store 	misses[38] 	0
scalar dtelecom_network.node[38].content_store 	decision_yes[38] 	0
scalar dtelecom_network.node[38].content_store 	decision_no[38] 	0
scalar dtelecom_network.node[38].content_store 	decision_ratio[38] 	0
scalar dtelecom_network.node[39].core_layer 	interests[39] 	0
scalar dtelecom_network.node[39].core_layer 	data[39] 	0
scalar dtelecom_network.node[39].content_store 	p_hit[39] 	-nan
scalar dtelecom_network.node[39].content_store 	hits[39] 	0
scalar dtelecom_network.node[39].content_store 	misses[39] 	0
scalar dtelecom_network.node[39].content_store 	decision_yes[39] 	0
scalar dtelecom_network.node[39].content_store 	decision_no[39] 	0
scalar dtelecom_network.node[39].content_store 	decision_ratio[39] 	0
scalar dtelecom_network.node[40].core_layer 	interests[40] 	14902
scalar dtelecom_network.node[40].core_layer 	data[40] 	9868
scalar dtelecom_network.node[40].content_store 	p_hit[40] 	0.33780700577104
scalar dtelecom_network.node[40].content_store 	hits[40] 	5034
scalar dtelecom_network.node[40].content_store 	misses[40] 	9868
scalar dtelecom_network.node[40].content_store 	decision_yes[40] 	6
scalar dtelecom_network.node[40].content_store 	decision_no[40] 	9862
scalar dtelecom_network.node[40].content_store 	decision_ratio[40] 	0.00060802594244021
scalar dtelecom_network.node[41].core_layer 	interests[41] 	14856
scalar dtelecom_network.node[41].core_layer 	repo_load[41] 	11699
scalar dtelecom_network.node[41].core_layer 	data[41] 	0
scalar dtelecom_network.node[41].content_store 	p_hit[41] 	0.21250673128702
scalar dtelecom_network.node[41].content_store 	hits[41] 	3157
scalar dtelecom_network.node[41].content_store 	misses[41] 	11699
scalar dtelecom_network.node[41].content_store 	decision_yes[41] 	29
scalar dtelecom_network.node[41].content_store 	decision_no[41] 	11670
scalar dtelecom_network.node[41].content_store 	decision_ratio[41] 	0.0024788443456706
scalar dtelecom_network.node[42].core_layer 	interests[42] 	12857
scalar dtelecom_network.node[42].core_layer 	data[42] 	8847
scalar dtelecom_network.node[42].content_store 	p_hit[42] 	0.31189235435949
scalar dtelecom_network.node[42].content_store 	hits[42] 	4010
scalar dtelecom_network.node[42].content_store 	misses[42] 	8847
scalar dtelecom_network.node[42].content_store 	decision_yes[42] 	10
scalar dtelecom_network.node[42].content_store 	decision_no[42] 	8837
scalar dtelecom_network.node[42].content_store 	decision_ratio[42] 	0.001130326664406
scalar dtelecom_network.node[43].core_layer 	interests[43] 	0
scalar dtelecom_network.node[43].core_layer 	data[43] 	0
scalar dtelecom_network.node[43].content_store 	p_hit[43] 	-nan
scalar dtelecom_network.node[43].content_store 	hits[43] 	0
scalar dtelecom_network.node[43].content_store 	misses[43] 	0
scalar dtelecom_network.node[43].content_store 	decision_yes[43] 	0
scalar dtelecom_network.node[43].content_store 	decision_no[43] 	0
scalar dtelecom_network.node[43].content_store 	decision_ratio[43] 	0
scalar dtelecom_network.node[44].core_layer 	interests[44] 	0
scalar dtelecom_network.node[44].core_layer 	data[44] 	0
scalar dtelecom_network.node[44].content_store 	p_hit[44] 	-nan
scalar dtelecom_network.node[44].content_store 	hits[44] 	0
scalar dtelecom_network.node[44].content_store 	misses[44] 	0
scalar dtelecom_network.node[44].content_store 	decision_yes[44] 	0
scalar dtelecom_network.node[44].content_store 	decision_no[44] 	0
scalar dtelecom_network.node[44].content_store 	decision_ratio[44] 	0
scalar dtelecom_network.node[45].core_layer 	interests[45] 	13198
scalar dtelecom_network.node[45].core_layer 	data[45] 	8671
scalar dtelecom_network.node[45].content_store 	p_hit[45] 	0.34277920897106
scalar dtelecom_network.node[45].content_store 	hits[45] 	4524
scalar dtelecom_network.node[45].content_store 	misses[45] 	8674
scalar dtelecom_network.node[45].content_store 	decision_yes[45] 	8
scalar dtelecom_network.node[45].content_store 	decision_no[45] 	8663
scalar dtelecom_network.node[45].content_store 	decision_ratio[45] 	0.00092261561526929
scalar dtelecom_network.node[46].core_layer 	interests[46] 	12953
scalar dtelecom_network.node[46].core_layer 	data[46] 	8725
scalar dtelecom_network.node[46].content_store 	p_hit[46] 	0.32641087006871
scalar dtelecom_network.node[46].content_store 	hits[46] 	4228
scalar dtelecom_network.node[46].content_store 	misses[46] 	8725
scalar dtelecom_network.node[46].content_store 	decision_yes[46] 	7
scalar dtelecom_network.node[46].content_store 	decision_no[46] 	8718
scalar dtelecom_network.node[46].content_store 	decision_ratio[46] 	0.00080229226361032
scalar dtelecom_network.node[47].core_layer 	interests[47] 	0
scalar dtelecom_network.node[47].core_layer 	data[47] 	0
scalar dtelecom_network.node[47].content_store 	p_hit[47] 	-nan
scalar dtelecom_network.node[47].content_store 	hits[47] 	0
scalar dtelecom_network.node[47].content_store 	misses[47] 	0
scalar dtelecom_network.node[47].content_store 	decision_yes[47] 	0
scalar dtelecom_network.node[47].content_store 	decision_no[47] 	0
scalar dtelecom_network.node[47].content_store 	decision_ratio[47] 	0
scalar dtelecom_network.node[48].core_layer 	interests[48] 	12877
scalar dtelecom_network.node[48].core_layer 	data[48] 	8963
scalar dtelecom_network.node[48].content_store 	p_hit[48] 	0.30379746835443
scalar dtelecom_network.node[48].content_store 	hits[48] 	3912
scalar dtelecom_network.node[48].content_store 	misses[48] 	8965
scalar dtelecom_network.node[48].content_store 	decision_yes[48] 	4
scalar dtelecom_network.node[48].content_store 	decision_no[48] 	8959
scalar dtelecom_network.node[48].content_store 	decision_ratio[48] 	0.00044627914760683
scalar dtelecom_network.node[49].core_layer 	interests[49] 	13175
scalar dtelecom_network.node[49].core_layer 	data[49] 	8875
scalar dtelecom_network.node[49].content_store 	p_hit[49] 	0.32645161290323
scalar dtelecom_network.node[49].content_store 	hits[49] 	4301
scalar dtelecom_network.node[49].content_store 	misses[49] 	8874
scalar dtelecom_network.node[49].content_store 	decision_yes[49] 	10
scalar dtelecom_network.node[49].content_store 	decision_no[49] 	8865
scalar dtelecom_network.node[49].content_store 	decision_ratio[49] 	0.0011267605633803
scalar dtelecom_network.node[50].core_layer 	interests[50] 	12959
scalar dtelecom_network.node[50].core_layer 	data[50] 	8887
scalar dtelecom_network.node[50].content_store 	p_hit[50] 	0.31429894281966
scalar dtelecom_network.node[50].content_store 	hits[50] 	4073
scalar dtelecom_network.node[50].content_store 	misses[50] 	8886
scalar dtelecom_network.node[50].content_store 	decision_yes[50] 	12
scalar dtelecom_network.node[50].content_store 	decision_no[50] 	8875
scalar dtelecom_network.node[50].content_store 	decision_ratio[50] 	0.0013502869359739
scalar dtelecom_network.node[51].core_layer 	interests[51] 	13475
scalar dtelecom_network.node[51].core_layer 	data[51] 	8787
scalar dtelecom_network.node[51].content_store 	p_hit[51] 	0.34790352504638
scalar dtelecom_network.node[51].content_store 	hits[51] 	4688
scalar dtelecom_network.node[51].content_store 	misses[51] 	8787
scalar dtelecom_network.node[51].content_store 	decision_yes[51] 	8
scalar dtelecom_network.node[51].content_store 	decision_no[51] 	8779
scalar dtelecom_network.node[51].content_store 	decision_ratio[51] 	0.00091043587117332
scalar dtelecom_network.node[52].core_layer 	interests[52] 	0
scalar dtelecom_network.node[52].core_layer 	data[52] 	0
scalar dtelecom_network.node[52].content_store 	p_hit[52] 	-nan
scalar dtelecom_network.node[52].content_store 	hits[52] 	0
scalar dtelecom_network.node[52].content_store 	misses[52] 	0
scalar dtelecom_network.node[52].content_store 	decision_yes[52] 	0
scalar dtelecom_network.node[52].content_store 	decision_no[52] 	0
scalar dtelecom_network.node[52].content_store 	decision_ratio[52] 	0
scalar dtelecom_network.node[53].core_layer 	interests[53] 	12899
scalar dtelecom_network.node[53].core_layer 	data[53] 	8789
scalar dtelecom_network.node[53].content_store 	p_hit[53] 	0.31855182572292
scalar dtelecom_network.node[53].content_store 	hits[53] 	4109
scalar dtelecom_network.node[53].content_store 	misses[53] 	8790
scalar dtelecom_network.node[53].content_store 	decision_yes[53] 	4
scalar dtelecom_network.node[53].content_store 	decision_no[53] 	8785
scalar dtelecom_network.node[53].content_store 	decision_ratio[53] 	0.0004551143474798
scalar dtelecom_network.node[54].core_layer 	interests[54] 	13080
scalar dtelecom_network.node[54].core_layer 	data[54] 	8756
scalar dtelecom_network.node[54].content_store 	p_hit[54] 	0.33065749235474
scalar dtelecom_network.node[54].content_store 	hits[54] 	4325
scalar dtelecom_network.node[54].content_store 	misses[54] 	8755
scalar dtelecom_network.node[54].content_store 	decision_yes[54] 	10
scalar dtelecom_network.node[54].content_store 	decision_no[54] 	8746
scalar dtelecom_network.node[54].content_store 	decision_ratio[54] 	0.0011420740063956
scalar dtelecom_network.node[55].core_layer 	interests[55] 	12902
scalar dtelecom_network.node[55].core_layer 	data[55] 	8736
scalar dtelecom_network.node[55].content_store 	p_hit[55] 	0.32305068981553
scalar dtelecom_network.node[55].content_store 	hits[55] 	4168
scalar dtelecom_network.node[55].content_store 	misses[55] 	8734
scalar dtelecom_network.node[55].content_store 	decision_yes[55] 	6
scalar dtelecom_network.node[55].content_store 	decision_no[55] 	8730
scalar dtelecom_network.node[55].content_store 	decision_ratio[55] 	0.00068681318681319
scalar dtelecom_network.node[56].core_layer 	interests[56] 	13378
scalar dtelecom_network.node[56].core_layer 	data[56] 	8802
scalar dtelecom_network.node[56].content_store 	p_hit[56] 	0.34205411870235
scalar dtelecom_network.node[56].content_store 	hits[56] 	4576
scalar dtelecom_network.node[56].content_store 	misses[56] 	8802
scalar dtelecom_network.node[56].content_store 	decision_yes[56] 	6
scalar dtelecom_network.node[56].content_store 	decision_no[56] 	8796
scalar dtelecom_network.node[56].content_store 	decision_ratio[56] 	0.00068166325835037
scalar dtelecom_network.node[57].core_layer 	interests[57] 	12827
scalar dtelecom_network.node[57].core_layer 	data[57] 	8915
scalar dtelecom_network.node[57].content_store 	p_hit[57] 	0.30498167927029
scalar dtelecom_network.node[57].content_store 	hits[57] 	3912
scalar dtelecom_network.node[57].content_store 	misses[57] 	8915
scalar dtelecom_network.node[57].content_store 	decision_yes[57] 	12
scalar dtelecom_network.node[57].content_store 	decision_no[57] 	8903
scalar dtelecom_network.node[57].content_store 	decision_ratio[57] 	0.0013460459899047
scalar dtelecom_network.node[58].core_layer 	interests[58] 	26664
scalar dtelecom_network.node[58].core_layer 	repo_load[58] 	12527
scalar dtelecom_network.node[58].core_layer 	data[58] 	8923
scalar dtelecom_network.node[58].content_store 	p_hit[58] 	0.19543204320432
scalar dtelecom_network.node[58].content_store 	hits[58] 	5211
scalar dtelecom_network.node[58].content_store 	misses[58] 	21453
scalar dtelecom_network.node[58].content_store 	decision_yes[58] 	21
scalar dtelecom_network.node[58].content_store 	decision_no[58] 	21429
scalar dtelecom_network.node[58].content_store 	decision_ratio[58] 	0.00097902097902098
scalar dtelecom_network.node[59].core_layer 	interests[59] 	25078
scalar dtelecom_network.node[59].core_layer 	repo_load[59] 	11185
scalar dtelecom_network.node[59].core_layer 	data[59] 	8591
scalar dtelecom_network.node[59].content_store 	p_hit[59] 	0.2113406172741
scalar dtelecom_network.node[59].content_store 	hits[59] 	5300
scalar dtelecom_network.node[59].content_store 	misses[59] 	19778
scalar dtelecom_network.node[59].content_store 	decision_yes[59] 	14
scalar dtelecom_network.node[59].content_store 	decision_no[59] 	19762
scalar dtelecom_network.node[59].content_store 	decision_ratio[59] 	0.000707928802589
scalar dtelecom_network.node[60].core_layer 	interests[60] 	0
scalar dtelecom_network.node[60].core_layer 	data[60] 	0
scalar dtelecom_network.node[60].content_store 	p_hit[60] 	-nan
scalar dtelecom_network.node[60].content_store 	hits[60] 	0
scalar dtelecom_network.node[60].content_store 	misses[60] 	0
scalar dtelecom_network.node[60].content_store 	decision_yes[60] 	0
scalar dtelecom_network.node[60].content_store 	decision_no[60] 	0
scalar dtelecom_network.node[60].content_store 	decision_ratio[60] 	0
scalar dtelecom_network.node[61].core_layer 	interests[61] 	0
scalar dtelecom_network.node[61].core_layer 	data[61] 	0
scalar dtelecom_network.node[61].content_store 	p_hit[61] 	-nan
scalar dtelecom_network.node[61].content_store 	hits[61] 	0
scalar dtelecom_network.node[61].content_store 	misses[61] 	0
scalar dtelecom_network.node[61].content_store 	decision_yes[61] 	0
scalar dtelecom_network.node[61].content_store 	decision_no[61] 	0
scalar dtelecom_network.node[61].content_store 	decision_ratio[61] 	0
scalar dtelecom_network.node[62].core_layer 	interests[62] 	12553
scalar dtelecom_network.node[62].core_layer 	data[62] 	8831
scalar dtelecom_network.node[62].content_store 	p_hit[62] 	0.29642316577711
scalar dtelecom_network.node[62].content_store 	hits[62] 	3721
scalar dtelecom_network.node[62].content_store 	misses[62] 	8832
scalar dtelecom_network.node[62].content_store 	decision_yes[62] 	19
scalar dtelecom_network.node[62].content_store 	decision_no[62] 	8812
scalar dtelecom_network.node[62].content_store 	decision_ratio[62] 	0.002151511720077
scalar dtelecom_network.node[63].core_layer 	interests[63] 	0
scalar dtelecom_network.node[63].core_layer 	data[63] 	0
scalar dtelecom_network.node[63].content_store 	p_hit[63] 	-nan
scalar dtelecom_network.node[63].content_store 	hits[63] 	0
scalar dtelecom_network.node[63].content_store 	misses[63] 	0
scalar dtelecom_network.node[63].content_store 	decision_yes[63] 	0
scalar dtelecom_network.node[63].content_store 	decision_no[63] 	0
scalar dtelecom_network.node[63].content_store 	decision_ratio[63] 	0
scalar dtelecom_network.node[64].core_layer 	interests[64] 	0
scalar dtelecom_network.node[64].core_layer 	data[64] 	0
scalar dtelecom_network.node[64].content_store 	p_hit[64] 	-nan
scalar dtelecom_network.node[64].content_store 	hits[64] 	0
scalar dtelecom_network.node[64].content_store 	misses[64] 	0
scalar dtelecom_network.node[64].content_store 	decision_yes[64] 	0
scalar dtelecom_network.node[64].content_store 	decision_no[64] 	0
scalar dtelecom_network.node[64].content_store 	decision_ratio[64] 	0
scalar dtelecom_network.node[65].core_layer 	interests[65] 	13654
scalar dtelecom_network.node[65].core_layer 	repo_load[65] 	11241
scalar dtelecom_network.node[65].core_layer 	data[65] 	0
scalar dtelecom_network.node[65].content_store 	p_hit[65] 	0.17672476929837
scalar dtelecom_network.node[65].content_store 	hits[65] 	2413
scalar dtelecom_network.node[65].content_store 	misses[65] 	11241
scalar dtelecom_network.node[65].content_store 	decision_yes[65] 	20
scalar dtelecom_network.node[65].content_store 	decision_no[65] 	11221
scalar dtelecom_network.node[65].content_store 	decision_ratio[65] 	0.0017792011386887
scalar dtelecom_network.node[66].core_layer 	interests[66] 	12115
scalar dtelecom_network.node[66].core_layer 	data[66] 	8693
scalar dtelecom_network.node[66].content_store 	p_hit[66] 	0.28229467602146
scalar dtelecom_network.node[66].content_store 	hits[66] 	3420
scalar dtelecom_network.node[66].content_store 	misses[66] 	8695
scalar dtelecom_network.node[66].content_store 	decision_yes[66] 	10
scalar dtelecom_network.node[66].content_store 	decision_no[66] 	8683
scalar dtelecom_network.node[66].content_store 	decision_ratio[66] 	0.0011503508570114
scalar dtelecom_network.node[67].core_layer 	interests[67] 	12532
scalar dtelecom_network.node[67].core_layer 	data[67] 	8977
scalar dtelecom_network.node[67].content_store 	p_hit[67] 	0.28367379508458
scalar dtelecom_network.node[67].content_store 	hits[67] 	3555
scalar dtelecom_network.node[67].content_store 	misses[67] 	8977
scalar dtelecom_network.node[67].content_store 	decision_yes[67] 	4
scalar dtelecom_network.node[67].content_store 	decision_no[67] 	8973
scalar dtelecom_network.node[67].content_store 	decision_ratio[67] 	0.00044558315695667
scalar dtelecom_network.client[3] 	hdistance[3] 	1.3153444416812
scalar dtelecom_network.client[3] 	downloads[3] 	12063
scalar dtelecom_network.client[3] 	avg_time[3] 	0.010052465899
scalar dtelecom_network.client[4] 	hdistance[4] 	1.2891860073999
scalar dtelecom_network.client[4] 	downloads[4] 	11892
scalar dtelecom_network.client[4] 	avg_time[4] 	0.045987399688
scalar dtelecom_network.client[8] 	hdistance[8] 	1.8137402034351
scalar dtelecom_network.client[8] 	downloads[8] 	11994
scalar dtelecom_network.client[8] 	avg_time[8] 	0.014669352816
scalar dtelecom_network.client[9] 	hdistance[9] 	1.7369479594402
scalar dtelecom_network.client[9] 	downloads[9] 	11933
scalar dtelecom_network.client[9] 	avg_time[9] 	0.013292176848
scalar dtelecom_network.client[17] 	hdistance[17] 	1.7550785426433
scalar dtelecom_network.client[17] 	downloads[17] 	12159
scalar dtelecom_network.client[17] 	avg_time[17] 	0.012630070519
scalar dtelecom_network.client[22] 	hdistance[22] 	1.8697809011988
scalar dtelecom_network.client[22] 	downloads[22] 	12095
scalar dtelecom_network.client[22] 	avg_time[22] 	0.013231897464
scalar dtelecom_network.client[23] 	hdistance[23] 	1.6825317717418
scalar dtelecom_network.client[23] 	downloads[23] 	12039
scalar dtelecom_network.client[23] 	avg_time[23] 	0.012096783472
scalar dtelecom_network.client[28] 	hdistance[28] 	1.781427241175
scalar dtelecom_network.client[28] 	downloads[28] 	11813
scalar dtelecom_network.client[28] 	avg_time[28] 	0.01565405609
scalar dtelecom_network.client[30] 	hdistance[30] 	1.868722979714
scalar dtelecom_network.client[30] 	downloads[30] 	12028
scalar dtelecom_network.client[30] 	avg_time[30] 	0.014091392258
scalar dtelecom_network.client[31] 	hdistance[31] 	1.7568932681957
scalar dtelecom_network.client[31] 	downloads[31] 	12077
scalar dtelecom_network.client[31] 	avg_time[31] 	0.015203870394
scalar dtelecom_network.client[32] 	hdistance[32] 	1.8260798295222
scalar dtelecom_network.client[32] 	downloads[32] 	12201
scalar dtelecom_network.client[32] 	avg_time[32] 	0.013351637889
scalar dtelecom_network.client[33] 	hdistance[33] 	1.7706232435113
scalar dtelecom_network.client[33] 	downloads[33] 	12098
scalar dtelecom_network.client[33] 	avg_time[33] 	0.01245417247
scalar dtelecom_network.client[36] 	hdistance[36] 	1.8645052631579
scalar dtelecom_network.client[36] 	downloads[36] 	11875
scalar dtelecom_network.client[36] 	avg_time[36] 	0.013560380654
scalar dtelecom_network.client[37] 	hdistance[37] 	1.7476317101546
scalar dtelecom_network.client[37] 	downloads[37] 	12034
scalar dtelecom_network.client[37] 	avg_time[37] 	0.01365873635
scalar dtelecom_network.client[40] 	hdistance[40] 	1.7569165093178
scalar dtelecom_network.client[40] 	downloads[40] 	12181
scalar dtelecom_network.client[40] 	avg_time[40] 	0.014090960346
scalar dtelecom_network.client[42] 	hdistance[42] 	1.7876530950017
scalar dtelecom_network.client[42] 	downloads[42] 	12084
scalar dtelecom_network.client[42] 	avg_time[42] 	0.014633878345
scalar dtelecom_network.client[45] 	hdistance[45] 	1.688460253841
scalar dtelecom_network.client[45] 	downloads[45] 	11976
scalar dtelecom_network.client[45] 	avg_time[45] 	0.012711157509
scalar dtelecom_network.client[46] 	hdistance[46] 	1.8369124112276
scalar dtelecom_network.client[46] 	downloads[46] 	11828
scalar dtelecom_network.client[46] 	avg_time[46] 	0.01501953809
scalar dtelecom_network.client[48] 	hdistance[48] 	1.8794019933555
scalar dtelecom_network.client[48] 	downloads[48] 	12040
scalar dtelecom_network.client[48] 	avg_time[48] 	0.013763828054
scalar dtelecom_network.client[49] 	hdistance[49] 	1.8489160458693
scalar dtelecom_network.client[49] 	downloads[49] 	11947
scalar dtelecom_network.client[49] 	avg_time[49] 	0.012570902602
scalar dtelecom_network.client[50] 	hdistance[50] 	1.8464046822742
scalar dtelecom_network.client[50] 	downloads[50] 	11960
scalar dtelecom_network.client[50] 	avg_time[50] 	0.012343821144
scalar dtelecom_network.client[51] 	hdistance[51] 	1.7780371883599
scalar dtelecom_network.client[51] 	downloads[51] 	11993
scalar dtelecom_network.client[51] 	avg_time[51] 	0.012866602903
scalar dtelecom_network.client[53] 	hdistance[53] 	1.8429063997982
scalar dtelecom_network.client[53] 	downloads[53] 	11891
scalar dtelecom_network.client[53] 	avg_time[53] 	0.011987898119
scalar dtelecom_network.client[54] 	hdistance[54] 	1.7818423678084
scalar dtelecom_network.client[54] 	downloads[54] 	12028
scalar dtelecom_network.client[54] 	avg_time[54] 	0.013325233894
scalar dtelecom_network.client[55] 	hdistance[55] 	1.7823026646556
scalar dtelecom_network.client[55] 	downloads[55] 	11934
scalar dtelecom_network.client[55] 	avg_time[55] 	0.016777276457
scalar dtelecom_network.client[56] 	hdistance[56] 	1.831028161973
scalar dtelecom_network.client[56] 	downloads[56] 	12002
scalar dtelecom_network.client[56] 	avg_time[56] 	0.012621421295
scalar dtelecom_network.client[57] 	hdistance[57] 	1.8241567460317
scalar dtelecom_network.client[57] 	downloads[57] 	12096
scalar dtelecom_network.client[57] 	avg_time[57] 	0.011897179985
scalar dtelecom_network.client[58] 	hdistance[58] 	1.7781818181818
scalar dtelecom_network.client[58] 	downloads[58] 	12100
scalar dtelecom_network.client[58] 	avg_time[58] 	0.015230831538
scalar dtelecom_network.client[59] 	hdistance[59] 	1.7065772936741
scalar dtelecom_network.client[59] 	downloads[59] 	11935
scalar dtelecom_network.client[59] 	avg_time[59] 	0.054144840185
scalar dtelecom_network.client[62] 	hdistance[62] 	2.2101740294511
scalar dtelecom_network.client[62] 	downloads[62] 	11952
scalar dtelecom_network.client[62] 	avg_time[62] 	0.054077411994
scalar dtelecom_network.client[66] 	hdistance[66] 	1.9207601594978
scalar dtelecom_network.client[66] 	downloads[66] 	11787
scalar dtelecom_network.client[66] 	avg_time[66] 	0.085809473993
scalar dtelecom_network.client[67] 	hdistance[67] 	1.9531600365418
scalar dtelecom_network.client[67] 	downloads[67] 	12041
scalar dtelecom_network.client[67] 	avg_time[67] 	0.071689734313
