version 2
run General-17-20160822-10:12:58-13100
attr D prob_cache
attr F spr
attr R lru
attr a 0.6
attr configname General
attr datetime 20160822-10:12:58
attr experiment General
attr inifile hw5115/scenario_B/bus.ini
attr iterationvars "$net=bus, $rep=0, $a=0.6, $F=spr, $D=prob_cache, $R=lru, $window=60, $variance=0.05, $mytime=600"
attr iterationvars2 "$net=bus, $rep=0, $a=0.6, $F=spr, $D=prob_cache, $R=lru, $window=60, $variance=0.05, $mytime=600, $repetition=0"
attr measurement "$net=bus, $rep=0, $a=0.6, $F=spr, $D=prob_cache, $R=lru, $window=60, $variance=0.05, $mytime=600"
attr mytime 600
attr net bus
attr network networks.${net=bus}_network
attr processid 13100
attr rep 0
attr repetition 0
attr replication #0
attr resultdir results
attr runnumber 17
attr seedset 0
attr variance 0.05
attr window 60

scalar . 	a 	0.6
scalar . 	mytime 	600
scalar . 	rep 	0
scalar . 	variance 	0.05
scalar . 	window 	60
scalar bus_network.content_distribution 	repo-0 	9
scalar bus_network.content_distribution 	client-0 	5
scalar bus_network.content_distribution 	client-1 	8
scalar bus_network.content_distribution 	client-2 	9
scalar bus_network.content_distribution 	client-3 	0
scalar bus_network.content_distribution 	client-4 	1
scalar bus_network.content_distribution 	client-5 	7
scalar bus_network.content_distribution 	client-6 	6
scalar bus_network.content_distribution 	client-7 	2
scalar bus_network.content_distribution 	client-8 	4
scalar bus_network.content_distribution 	client-9 	3
scalar bus_network.content_distribution 	repo-0_card 	100000
scalar bus_network.content_distribution 	repo-0_price 	0
scalar bus_network.statistics 	stabilization_time 	626.5
scalar bus_network.statistics 	p_hit 	0.0059677049607646
scalar bus_network.statistics 	interests 	64829.3
scalar bus_network.statistics 	data 	52842.6
scalar bus_network.statistics 	hdistance 	5.3807157488955
scalar bus_network.statistics 	avg_time 	0.008813863572
scalar bus_network.statistics 	downloads 	119872
scalar bus_network.statistics 	total_cost 	0
scalar bus_network.statistics 	total_replicas 	100000
scalar bus_network.statistics 	inner_hit 	0.026336425520555
scalar bus_network.node[0].core_layer 	interests[0] 	11954
scalar bus_network.node[0].core_layer 	data[0] 	11797
scalar bus_network.node[0].core_layer 	repo_int[0] 	116715
scalar bus_network.node[0].content_store 	p_hit[0] 	0.013217333110256
scalar bus_network.node[0].content_store 	hits[0] 	158
scalar bus_network.node[0].content_store 	misses[0] 	11796
scalar bus_network.node[0].content_store 	decision_yes[0] 	1216
scalar bus_network.node[0].content_store 	decision_no[0] 	10581
scalar bus_network.node[0].content_store 	decision_ratio[0] 	0.10307705348817
scalar bus_network.node[1].core_layer 	interests[1] 	23702
scalar bus_network.node[1].core_layer 	data[1] 	23526
scalar bus_network.node[1].content_store 	p_hit[1] 	0.0074677242426799
scalar bus_network.node[1].content_store 	hits[1] 	177
scalar bus_network.node[1].content_store 	misses[1] 	23525
scalar bus_network.node[1].content_store 	decision_yes[1] 	3378
scalar bus_network.node[1].content_store 	decision_no[1] 	20148
scalar bus_network.node[1].content_store 	decision_ratio[1] 	0.14358581994389
scalar bus_network.node[2].core_layer 	interests[2] 	35439
scalar bus_network.node[2].core_layer 	data[2] 	35194
scalar bus_network.node[2].content_store 	p_hit[2] 	0.0069415051214763
scalar bus_network.node[2].content_store 	hits[2] 	246
scalar bus_network.node[2].content_store 	misses[2] 	35193
scalar bus_network.node[2].content_store 	decision_yes[2] 	6091
scalar bus_network.node[2].content_store 	decision_no[2] 	29103
scalar bus_network.node[2].content_store 	decision_ratio[2] 	0.17306927317156
scalar bus_network.node[3].core_layer 	interests[3] 	47370
scalar bus_network.node[3].core_layer 	data[3] 	47094
scalar bus_network.node[3].content_store 	p_hit[3] 	0.0058264724509183
scalar bus_network.node[3].content_store 	hits[3] 	276
scalar bus_network.node[3].content_store 	misses[3] 	47094
scalar bus_network.node[3].content_store 	decision_yes[3] 	9366
scalar bus_network.node[3].content_store 	decision_no[3] 	37728
scalar bus_network.node[3].content_store 	decision_ratio[3] 	0.19887883806854
scalar bus_network.node[4].core_layer 	interests[4] 	59039
scalar bus_network.node[4].core_layer 	data[4] 	58745
scalar bus_network.node[4].content_store 	p_hit[4] 	0.0049628211859957
scalar bus_network.node[4].content_store 	hits[4] 	293
scalar bus_network.node[4].content_store 	misses[4] 	58746
scalar bus_network.node[4].content_store 	decision_yes[4] 	12557
scalar bus_network.node[4].content_store 	decision_no[4] 	46188
scalar bus_network.node[4].content_store 	decision_ratio[4] 	0.21375436207337
scalar bus_network.node[5].core_layer 	interests[5] 	70946
scalar bus_network.node[5].core_layer 	data[5] 	70617
scalar bus_network.node[5].content_store 	p_hit[5] 	0.0046373298001297
scalar bus_network.node[5].content_store 	hits[5] 	329
scalar bus_network.node[5].content_store 	misses[5] 	70617
scalar bus_network.node[5].content_store 	decision_yes[5] 	15318
scalar bus_network.node[5].content_store 	decision_no[5] 	55299
scalar bus_network.node[5].content_store 	decision_ratio[5] 	0.21691660648286
scalar bus_network.node[6].core_layer 	interests[6] 	82596
scalar bus_network.node[6].core_layer 	data[6] 	82251
scalar bus_network.node[6].content_store 	p_hit[6] 	0.0041648505980919
scalar bus_network.node[6].content_store 	hits[6] 	344
scalar bus_network.node[6].content_store 	misses[6] 	82252
scalar bus_network.node[6].content_store 	decision_yes[6] 	17554
scalar bus_network.node[6].content_store 	decision_no[6] 	64697
scalar bus_network.node[6].content_store 	decision_ratio[6] 	0.21341989763042
scalar bus_network.node[7].core_layer 	interests[7] 	94189
scalar bus_network.node[7].core_layer 	data[7] 	93842
scalar bus_network.node[7].content_store 	p_hit[7] 	0.0036840820053297
scalar bus_network.node[7].content_store 	hits[7] 	347
scalar bus_network.node[7].content_store 	misses[7] 	93842
scalar bus_network.node[7].content_store 	decision_yes[7] 	17970
scalar bus_network.node[7].content_store 	decision_no[7] 	75872
scalar bus_network.node[7].content_store 	decision_ratio[7] 	0.19149208243644
scalar bus_network.node[8].core_layer 	interests[8] 	105774
scalar bus_network.node[8].core_layer 	data[8] 	105360
scalar bus_network.node[8].content_store 	p_hit[8] 	0.0039234594512829
scalar bus_network.node[8].content_store 	hits[8] 	415
scalar bus_network.node[8].content_store 	misses[8] 	105359
scalar bus_network.node[8].content_store 	decision_yes[8] 	16486
scalar bus_network.node[8].content_store 	decision_no[8] 	88874
scalar bus_network.node[8].content_store 	decision_ratio[8] 	0.15647304479879
scalar bus_network.node[9].core_layer 	interests[9] 	117284
scalar bus_network.node[9].core_layer 	repo_load[9] 	116715
scalar bus_network.node[9].core_layer 	data[9] 	0
scalar bus_network.node[9].content_store 	p_hit[9] 	0.0048514716414856
scalar bus_network.node[9].content_store 	hits[9] 	569
scalar bus_network.node[9].content_store 	misses[9] 	116715
scalar bus_network.node[9].content_store 	decision_yes[9] 	11665
scalar bus_network.node[9].content_store 	decision_no[9] 	105050
scalar bus_network.node[9].content_store 	decision_ratio[9] 	0.09994430878636
scalar bus_network.client[0] 	hdistance[0] 	9.7064826432455
scalar bus_network.client[0] 	downloads[0] 	11955
scalar bus_network.client[0] 	avg_time[0] 	0.017494747525
scalar bus_network.client[1] 	hdistance[1] 	8.7513018646061
scalar bus_network.client[1] 	downloads[1] 	11906
scalar bus_network.client[1] 	avg_time[1] 	0.015582896403
scalar bus_network.client[2] 	hdistance[2] 	7.8141682054726
scalar bus_network.client[2] 	downloads[2] 	11914
scalar bus_network.client[2] 	avg_time[2] 	0.013696488547
scalar bus_network.client[3] 	hdistance[3] 	6.8621992280529
scalar bus_network.client[3] 	downloads[3] 	12177
scalar bus_network.client[3] 	avg_time[3] 	0.011781605163
scalar bus_network.client[4] 	hdistance[4] 	5.8874005860193
scalar bus_network.client[4] 	downloads[4] 	11945
scalar bus_network.client[4] 	avg_time[4] 	0.009830912467
scalar bus_network.client[5] 	hdistance[5] 	4.9104171789198
scalar bus_network.client[5] 	downloads[5] 	12201
scalar bus_network.client[5] 	avg_time[5] 	0.007875908758
scalar bus_network.client[6] 	hdistance[6] 	3.9457383754904
scalar bus_network.client[6] 	downloads[6] 	11979
scalar bus_network.client[6] 	avg_time[6] 	0.005932044751
scalar bus_network.client[7] 	hdistance[7] 	2.960043558385
scalar bus_network.client[7] 	downloads[7] 	11938
scalar bus_network.client[7] 	avg_time[7] 	0.003958784095
scalar bus_network.client[8] 	hdistance[8] 	1.9782954831141
scalar bus_network.client[8] 	downloads[8] 	11933
scalar bus_network.client[8] 	avg_time[8] 	0.001985248018
scalar bus_network.client[9] 	hdistance[9] 	0.99111036564911
scalar bus_network.client[9] 	downloads[9] 	11924
scalar bus_network.client[9] 	avg_time[9] 	0
