version 2
run General-102-20160819-03:12:24-14109
attr a 0.9
attr cd fix0.01
attr configname General
attr cr lru
attr datetime 20160819-03:12:24
attr experiment General
attr fsize 1
attr inifile hw5115/scenario_A/NRR-FIX0.01.ini
attr iterationvars "$name=tree_4_3, $un=05, $rep=3, $cd=fix0.01, $cr=lru, $fsize=1, $a=0.9, $sl=nrr, $ttl=1000, $variance=0.05"
attr iterationvars2 "$name=tree_4_3, $un=05, $rep=3, $cd=fix0.01, $cr=lru, $fsize=1, $a=0.9, $sl=nrr, $ttl=1000, $variance=0.05, $repetition=0"
attr measurement "$name=tree_4_3, $un=05, $rep=3, $cd=fix0.01, $cr=lru, $fsize=1, $a=0.9, $sl=nrr, $ttl=1000, $variance=0.05"
attr name tree_4_3
attr network networks.${name}_u${un}_r${rep}_network
attr processid 14109
attr rep 3
attr repetition 0
attr replication #0
attr resultdir results
attr runnumber 102
attr seedset 3
attr sl nrr
attr ttl 1000
attr un 05
attr variance 0.05

scalar . 	a 	0.9
scalar . 	fsize 	1
scalar . 	rep 	3
scalar . 	ttl 	1000
scalar . 	un 	05
scalar . 	variance 	0.05
scalar tree_4_3_u05_r3_network.content_distribution 	repo-0 	0
scalar tree_4_3_u05_r3_network.content_distribution 	client-0 	13
scalar tree_4_3_u05_r3_network.content_distribution 	client-1 	14
scalar tree_4_3_u05_r3_network.content_distribution 	client-2 	15
scalar tree_4_3_u05_r3_network.content_distribution 	client-3 	16
scalar tree_4_3_u05_r3_network.content_distribution 	client-4 	17
scalar tree_4_3_u05_r3_network.content_distribution 	client-5 	18
scalar tree_4_3_u05_r3_network.content_distribution 	client-6 	19
scalar tree_4_3_u05_r3_network.content_distribution 	client-7 	20
scalar tree_4_3_u05_r3_network.content_distribution 	client-8 	21
scalar tree_4_3_u05_r3_network.content_distribution 	client-9 	22
scalar tree_4_3_u05_r3_network.content_distribution 	client-10 	23
scalar tree_4_3_u05_r3_network.content_distribution 	client-11 	24
scalar tree_4_3_u05_r3_network.content_distribution 	client-12 	25
scalar tree_4_3_u05_r3_network.content_distribution 	client-13 	26
scalar tree_4_3_u05_r3_network.content_distribution 	client-14 	27
scalar tree_4_3_u05_r3_network.content_distribution 	client-15 	28
scalar tree_4_3_u05_r3_network.content_distribution 	client-16 	29
scalar tree_4_3_u05_r3_network.content_distribution 	client-17 	30
scalar tree_4_3_u05_r3_network.content_distribution 	client-18 	31
scalar tree_4_3_u05_r3_network.content_distribution 	client-19 	32
scalar tree_4_3_u05_r3_network.content_distribution 	client-20 	33
scalar tree_4_3_u05_r3_network.content_distribution 	client-21 	34
scalar tree_4_3_u05_r3_network.content_distribution 	client-22 	35
scalar tree_4_3_u05_r3_network.content_distribution 	client-23 	36
scalar tree_4_3_u05_r3_network.content_distribution 	client-24 	37
scalar tree_4_3_u05_r3_network.content_distribution 	client-25 	38
scalar tree_4_3_u05_r3_network.content_distribution 	client-26 	39
scalar tree_4_3_u05_r3_network.content_distribution 	repo-0_card 	100000
scalar tree_4_3_u05_r3_network.content_distribution 	repo-0_price 	0
scalar tree_4_3_u05_r3_network.statistics 	stabilization_time 	1966.3
scalar tree_4_3_u05_r3_network.statistics 	p_hit 	0.23136201624867
scalar tree_4_3_u05_r3_network.statistics 	interests 	25627.275
scalar tree_4_3_u05_r3_network.statistics 	data 	17553.025
scalar tree_4_3_u05_r3_network.statistics 	hdistance 	2.7193203257978
scalar tree_4_3_u05_r3_network.statistics 	avg_time 	0.004348013485
scalar tree_4_3_u05_r3_network.statistics 	downloads 	322959
scalar tree_4_3_u05_r3_network.statistics 	total_cost 	0
scalar tree_4_3_u05_r3_network.statistics 	total_replicas 	100000
scalar tree_4_3_u05_r3_network.statistics 	inner_hit 	0.45475431865964
scalar tree_4_3_u05_r3_network.node[0].core_layer 	interests[0] 	177442
scalar tree_4_3_u05_r3_network.node[0].core_layer 	repo_load[0] 	176092
scalar tree_4_3_u05_r3_network.node[0].core_layer 	data[0] 	0
scalar tree_4_3_u05_r3_network.node[0].core_layer 	repo_int[0] 	176092
scalar tree_4_3_u05_r3_network.node[0].content_store 	p_hit[0] 	0.0076081198363409
scalar tree_4_3_u05_r3_network.node[0].content_store 	hits[0] 	1350
scalar tree_4_3_u05_r3_network.node[0].content_store 	misses[0] 	176092
scalar tree_4_3_u05_r3_network.node[0].content_store 	decision_yes[0] 	1717
scalar tree_4_3_u05_r3_network.node[0].content_store 	decision_no[0] 	174375
scalar tree_4_3_u05_r3_network.node[0].content_store 	decision_ratio[0] 	0.0097505849215183
scalar tree_4_3_u05_r3_network.node[1].core_layer 	interests[1] 	86131
scalar tree_4_3_u05_r3_network.node[1].core_layer 	data[1] 	84462
scalar tree_4_3_u05_r3_network.node[1].content_store 	p_hit[1] 	0.019365849694071
scalar tree_4_3_u05_r3_network.node[1].content_store 	hits[1] 	1668
scalar tree_4_3_u05_r3_network.node[1].content_store 	misses[1] 	84463
scalar tree_4_3_u05_r3_network.node[1].content_store 	decision_yes[1] 	872
scalar tree_4_3_u05_r3_network.node[1].content_store 	decision_no[1] 	83590
scalar tree_4_3_u05_r3_network.node[1].content_store 	decision_ratio[1] 	0.010324169448983
scalar tree_4_3_u05_r3_network.node[2].core_layer 	interests[2] 	81272
scalar tree_4_3_u05_r3_network.node[2].core_layer 	data[2] 	78103
scalar tree_4_3_u05_r3_network.node[2].content_store 	p_hit[2] 	0.038992518948715
scalar tree_4_3_u05_r3_network.node[2].content_store 	hits[2] 	3169
scalar tree_4_3_u05_r3_network.node[2].content_store 	misses[2] 	78103
scalar tree_4_3_u05_r3_network.node[2].content_store 	decision_yes[2] 	763
scalar tree_4_3_u05_r3_network.node[2].content_store 	decision_no[2] 	77340
scalar tree_4_3_u05_r3_network.node[2].content_store 	decision_ratio[2] 	0.0097691509929196
scalar tree_4_3_u05_r3_network.node[3].core_layer 	interests[3] 	45055
scalar tree_4_3_u05_r3_network.node[3].core_layer 	data[3] 	42112
scalar tree_4_3_u05_r3_network.node[3].content_store 	p_hit[3] 	0.065320164243702
scalar tree_4_3_u05_r3_network.node[3].content_store 	hits[3] 	2943
scalar tree_4_3_u05_r3_network.node[3].content_store 	misses[3] 	42112
scalar tree_4_3_u05_r3_network.node[3].content_store 	decision_yes[3] 	444
scalar tree_4_3_u05_r3_network.node[3].content_store 	decision_no[3] 	41668
scalar tree_4_3_u05_r3_network.node[3].content_store 	decision_ratio[3] 	0.010543313069909
scalar tree_4_3_u05_r3_network.node[4].core_layer 	interests[4] 	26110
scalar tree_4_3_u05_r3_network.node[4].core_layer 	data[4] 	23925
scalar tree_4_3_u05_r3_network.node[4].content_store 	p_hit[4] 	0.083684412102643
scalar tree_4_3_u05_r3_network.node[4].content_store 	hits[4] 	2185
scalar tree_4_3_u05_r3_network.node[4].content_store 	misses[4] 	23925
scalar tree_4_3_u05_r3_network.node[4].content_store 	decision_yes[4] 	228
scalar tree_4_3_u05_r3_network.node[4].content_store 	decision_no[4] 	23697
scalar tree_4_3_u05_r3_network.node[4].content_store 	decision_ratio[4] 	0.0095297805642633
scalar tree_4_3_u05_r3_network.node[5].core_layer 	interests[5] 	32941
scalar tree_4_3_u05_r3_network.node[5].core_layer 	data[5] 	28610
scalar tree_4_3_u05_r3_network.node[5].content_store 	p_hit[5] 	0.1314471327525
scalar tree_4_3_u05_r3_network.node[5].content_store 	hits[5] 	4330
scalar tree_4_3_u05_r3_network.node[5].content_store 	misses[5] 	28611
scalar tree_4_3_u05_r3_network.node[5].content_store 	decision_yes[5] 	294
scalar tree_4_3_u05_r3_network.node[5].content_store 	decision_no[5] 	28316
scalar tree_4_3_u05_r3_network.node[5].content_store 	decision_ratio[5] 	0.010276127228242
scalar tree_4_3_u05_r3_network.node[6].core_layer 	interests[6] 	34813
scalar tree_4_3_u05_r3_network.node[6].core_layer 	data[6] 	30304
scalar tree_4_3_u05_r3_network.node[6].content_store 	p_hit[6] 	0.12952058139201
scalar tree_4_3_u05_r3_network.node[6].content_store 	hits[6] 	4509
scalar tree_4_3_u05_r3_network.node[6].content_store 	misses[6] 	30304
scalar tree_4_3_u05_r3_network.node[6].content_store 	decision_yes[6] 	255
scalar tree_4_3_u05_r3_network.node[6].content_store 	decision_no[6] 	30049
scalar tree_4_3_u05_r3_network.node[6].content_store 	decision_ratio[6] 	0.0084147307286167
scalar tree_4_3_u05_r3_network.node[7].core_layer 	interests[7] 	31978
scalar tree_4_3_u05_r3_network.node[7].core_layer 	data[7] 	28592
scalar tree_4_3_u05_r3_network.node[7].content_store 	p_hit[7] 	0.1058852961411
scalar tree_4_3_u05_r3_network.node[7].content_store 	hits[7] 	3386
scalar tree_4_3_u05_r3_network.node[7].content_store 	misses[7] 	28592
scalar tree_4_3_u05_r3_network.node[7].content_store 	decision_yes[7] 	288
scalar tree_4_3_u05_r3_network.node[7].content_store 	decision_no[7] 	28304
scalar tree_4_3_u05_r3_network.node[7].content_store 	decision_ratio[7] 	0.010072747621712
scalar tree_4_3_u05_r3_network.node[8].core_layer 	interests[8] 	37703
scalar tree_4_3_u05_r3_network.node[8].core_layer 	data[8] 	34822
scalar tree_4_3_u05_r3_network.node[8].content_store 	p_hit[8] 	0.076359971355065
scalar tree_4_3_u05_r3_network.node[8].content_store 	hits[8] 	2879
scalar tree_4_3_u05_r3_network.node[8].content_store 	misses[8] 	34824
scalar tree_4_3_u05_r3_network.node[8].content_store 	decision_yes[8] 	369
scalar tree_4_3_u05_r3_network.node[8].content_store 	decision_no[8] 	34453
scalar tree_4_3_u05_r3_network.node[8].content_store 	decision_ratio[8] 	0.010596749181552
scalar tree_4_3_u05_r3_network.node[9].core_layer 	interests[9] 	22024
scalar tree_4_3_u05_r3_network.node[9].core_layer 	data[9] 	18393
scalar tree_4_3_u05_r3_network.node[9].content_store 	p_hit[9] 	0.16486560116237
scalar tree_4_3_u05_r3_network.node[9].content_store 	hits[9] 	3631
scalar tree_4_3_u05_r3_network.node[9].content_store 	misses[9] 	18393
scalar tree_4_3_u05_r3_network.node[9].content_store 	decision_yes[9] 	186
scalar tree_4_3_u05_r3_network.node[9].content_store 	decision_no[9] 	18207
scalar tree_4_3_u05_r3_network.node[9].content_store 	decision_ratio[9] 	0.010112542815201
scalar tree_4_3_u05_r3_network.node[10].core_layer 	interests[10] 	40019
scalar tree_4_3_u05_r3_network.node[10].core_layer 	data[10] 	36352
scalar tree_4_3_u05_r3_network.node[10].content_store 	p_hit[10] 	0.091606486918714
scalar tree_4_3_u05_r3_network.node[10].content_store 	hits[10] 	3666
scalar tree_4_3_u05_r3_network.node[10].content_store 	misses[10] 	36353
scalar tree_4_3_u05_r3_network.node[10].content_store 	decision_yes[10] 	344
scalar tree_4_3_u05_r3_network.node[10].content_store 	decision_no[10] 	36008
scalar tree_4_3_u05_r3_network.node[10].content_store 	decision_ratio[10] 	0.0094630281690141
scalar tree_4_3_u05_r3_network.node[11].core_layer 	interests[11] 	40412
scalar tree_4_3_u05_r3_network.node[11].core_layer 	data[11] 	36162
scalar tree_4_3_u05_r3_network.node[11].content_store 	p_hit[11] 	0.10509254676829
scalar tree_4_3_u05_r3_network.node[11].content_store 	hits[11] 	4247
scalar tree_4_3_u05_r3_network.node[11].content_store 	misses[11] 	36165
scalar tree_4_3_u05_r3_network.node[11].content_store 	decision_yes[11] 	346
scalar tree_4_3_u05_r3_network.node[11].content_store 	decision_no[11] 	35816
scalar tree_4_3_u05_r3_network.node[11].content_store 	decision_ratio[11] 	0.0095680548642221
scalar tree_4_3_u05_r3_network.node[12].core_layer 	interests[12] 	12096
scalar tree_4_3_u05_r3_network.node[12].core_layer 	data[12] 	9425
scalar tree_4_3_u05_r3_network.node[12].content_store 	p_hit[12] 	0.2208167989418
scalar tree_4_3_u05_r3_network.node[12].content_store 	hits[12] 	2671
scalar tree_4_3_u05_r3_network.node[12].content_store 	misses[12] 	9425
scalar tree_4_3_u05_r3_network.node[12].content_store 	decision_yes[12] 	82
scalar tree_4_3_u05_r3_network.node[12].content_store 	decision_no[12] 	9343
scalar tree_4_3_u05_r3_network.node[12].content_store 	decision_ratio[12] 	0.0087002652519894
scalar tree_4_3_u05_r3_network.node[13].core_layer 	interests[13] 	12567
scalar tree_4_3_u05_r3_network.node[13].core_layer 	data[13] 	9286
scalar tree_4_3_u05_r3_network.node[13].content_store 	p_hit[13] 	0.26108060794143
scalar tree_4_3_u05_r3_network.node[13].content_store 	hits[13] 	3281
scalar tree_4_3_u05_r3_network.node[13].content_store 	misses[13] 	9286
scalar tree_4_3_u05_r3_network.node[13].content_store 	decision_yes[13] 	92
scalar tree_4_3_u05_r3_network.node[13].content_store 	decision_no[13] 	9194
scalar tree_4_3_u05_r3_network.node[13].content_store 	decision_ratio[13] 	0.0099073874650011
scalar tree_4_3_u05_r3_network.node[14].core_layer 	interests[14] 	13701
scalar tree_4_3_u05_r3_network.node[14].core_layer 	data[14] 	9430
scalar tree_4_3_u05_r3_network.node[14].content_store 	p_hit[14] 	0.31172907087074
scalar tree_4_3_u05_r3_network.node[14].content_store 	hits[14] 	4271
scalar tree_4_3_u05_r3_network.node[14].content_store 	misses[14] 	9430
scalar tree_4_3_u05_r3_network.node[14].content_store 	decision_yes[14] 	100
scalar tree_4_3_u05_r3_network.node[14].content_store 	decision_no[14] 	9330
scalar tree_4_3_u05_r3_network.node[14].content_store 	decision_ratio[14] 	0.010604453870626
scalar tree_4_3_u05_r3_network.node[15].core_layer 	interests[15] 	13649
scalar tree_4_3_u05_r3_network.node[15].core_layer 	data[15] 	9502
scalar tree_4_3_u05_r3_network.node[15].content_store 	p_hit[15] 	0.30375851710748
scalar tree_4_3_u05_r3_network.node[15].content_store 	hits[15] 	4146
scalar tree_4_3_u05_r3_network.node[15].content_store 	misses[15] 	9503
scalar tree_4_3_u05_r3_network.node[15].content_store 	decision_yes[15] 	85
scalar tree_4_3_u05_r3_network.node[15].content_store 	decision_no[15] 	9417
scalar tree_4_3_u05_r3_network.node[15].content_store 	decision_ratio[15] 	0.0089454851610187
scalar tree_4_3_u05_r3_network.node[16].core_layer 	interests[16] 	13168
scalar tree_4_3_u05_r3_network.node[16].core_layer 	data[16] 	9353
scalar tree_4_3_u05_r3_network.node[16].content_store 	p_hit[16] 	0.28971749696233
scalar tree_4_3_u05_r3_network.node[16].content_store 	hits[16] 	3815
scalar tree_4_3_u05_r3_network.node[16].content_store 	misses[16] 	9353
scalar tree_4_3_u05_r3_network.node[16].content_store 	decision_yes[16] 	78
scalar tree_4_3_u05_r3_network.node[16].content_store 	decision_no[16] 	9275
scalar tree_4_3_u05_r3_network.node[16].content_store 	decision_ratio[16] 	0.0083395701913824
scalar tree_4_3_u05_r3_network.node[17].core_layer 	interests[17] 	13287
scalar tree_4_3_u05_r3_network.node[17].core_layer 	data[17] 	9475
scalar tree_4_3_u05_r3_network.node[17].content_store 	p_hit[17] 	0.2866711823587
scalar tree_4_3_u05_r3_network.node[17].content_store 	hits[17] 	3809
scalar tree_4_3_u05_r3_network.node[17].content_store 	misses[17] 	9478
scalar tree_4_3_u05_r3_network.node[17].content_store 	decision_yes[17] 	94
scalar tree_4_3_u05_r3_network.node[17].content_store 	decision_no[17] 	9381
scalar tree_4_3_u05_r3_network.node[17].content_store 	decision_ratio[17] 	0.0099208443271768
scalar tree_4_3_u05_r3_network.node[18].core_layer 	interests[18] 	14120
scalar tree_4_3_u05_r3_network.node[18].core_layer 	data[18] 	9375
scalar tree_4_3_u05_r3_network.node[18].content_store 	p_hit[18] 	0.33597733711048
scalar tree_4_3_u05_r3_network.node[18].content_store 	hits[18] 	4744
scalar tree_4_3_u05_r3_network.node[18].content_store 	misses[18] 	9376
scalar tree_4_3_u05_r3_network.node[18].content_store 	decision_yes[18] 	91
scalar tree_4_3_u05_r3_network.node[18].content_store 	decision_no[18] 	9284
scalar tree_4_3_u05_r3_network.node[18].content_store 	decision_ratio[18] 	0.0097066666666667
scalar tree_4_3_u05_r3_network.node[19].core_layer 	interests[19] 	13161
scalar tree_4_3_u05_r3_network.node[19].core_layer 	data[19] 	9086
scalar tree_4_3_u05_r3_network.node[19].content_store 	p_hit[19] 	0.30955094597675
scalar tree_4_3_u05_r3_network.node[19].content_store 	hits[19] 	4074
scalar tree_4_3_u05_r3_network.node[19].content_store 	misses[19] 	9087
scalar tree_4_3_u05_r3_network.node[19].content_store 	decision_yes[19] 	101
scalar tree_4_3_u05_r3_network.node[19].content_store 	decision_no[19] 	8985
scalar tree_4_3_u05_r3_network.node[19].content_store 	decision_ratio[19] 	0.011116002641426
scalar tree_4_3_u05_r3_network.node[20].core_layer 	interests[20] 	13130
scalar tree_4_3_u05_r3_network.node[20].core_layer 	data[20] 	9058
scalar tree_4_3_u05_r3_network.node[20].content_store 	p_hit[20] 	0.31012947448591
scalar tree_4_3_u05_r3_network.node[20].content_store 	hits[20] 	4072
scalar tree_4_3_u05_r3_network.node[20].content_store 	misses[20] 	9058
scalar tree_4_3_u05_r3_network.node[20].content_store 	decision_yes[20] 	112
scalar tree_4_3_u05_r3_network.node[20].content_store 	decision_no[20] 	8946
scalar tree_4_3_u05_r3_network.node[20].content_store 	decision_ratio[20] 	0.012364760432767
scalar tree_4_3_u05_r3_network.node[21].core_layer 	interests[21] 	13275
scalar tree_4_3_u05_r3_network.node[21].core_layer 	data[21] 	9261
scalar tree_4_3_u05_r3_network.node[21].content_store 	p_hit[21] 	0.30237288135593
scalar tree_4_3_u05_r3_network.node[21].content_store 	hits[21] 	4014
scalar tree_4_3_u05_r3_network.node[21].content_store 	misses[21] 	9261
scalar tree_4_3_u05_r3_network.node[21].content_store 	decision_yes[21] 	84
scalar tree_4_3_u05_r3_network.node[21].content_store 	decision_no[21] 	9177
scalar tree_4_3_u05_r3_network.node[21].content_store 	decision_ratio[21] 	0.0090702947845805
scalar tree_4_3_u05_r3_network.node[22].core_layer 	interests[22] 	13463
scalar tree_4_3_u05_r3_network.node[22].core_layer 	data[22] 	9390
scalar tree_4_3_u05_r3_network.node[22].content_store 	p_hit[22] 	0.30253286786006
scalar tree_4_3_u05_r3_network.node[22].content_store 	hits[22] 	4073
scalar tree_4_3_u05_r3_network.node[22].content_store 	misses[22] 	9390
scalar tree_4_3_u05_r3_network.node[22].content_store 	decision_yes[22] 	78
scalar tree_4_3_u05_r3_network.node[22].content_store 	decision_no[22] 	9312
scalar tree_4_3_u05_r3_network.node[22].content_store 	decision_ratio[22] 	0.0083067092651757
scalar tree_4_3_u05_r3_network.node[23].core_layer 	interests[23] 	13241
scalar tree_4_3_u05_r3_network.node[23].core_layer 	data[23] 	9360
scalar tree_4_3_u05_r3_network.node[23].content_store 	p_hit[23] 	0.2931047503965
scalar tree_4_3_u05_r3_network.node[23].content_store 	hits[23] 	3881
scalar tree_4_3_u05_r3_network.node[23].content_store 	misses[23] 	9360
scalar tree_4_3_u05_r3_network.node[23].content_store 	decision_yes[23] 	88
scalar tree_4_3_u05_r3_network.node[23].content_store 	decision_no[23] 	9272
scalar tree_4_3_u05_r3_network.node[23].content_store 	decision_ratio[23] 	0.0094017094017094
scalar tree_4_3_u05_r3_network.node[24].core_layer 	interests[24] 	13245
scalar tree_4_3_u05_r3_network.node[24].core_layer 	data[24] 	9214
scalar tree_4_3_u05_r3_network.node[24].content_store 	p_hit[24] 	0.30434126085315
scalar tree_4_3_u05_r3_network.node[24].content_store 	hits[24] 	4031
scalar tree_4_3_u05_r3_network.node[24].content_store 	misses[24] 	9214
scalar tree_4_3_u05_r3_network.node[24].content_store 	decision_yes[24] 	92
scalar tree_4_3_u05_r3_network.node[24].content_store 	decision_no[24] 	9122
scalar tree_4_3_u05_r3_network.node[24].content_store 	decision_ratio[24] 	0.0099848057304102
scalar tree_4_3_u05_r3_network.node[25].core_layer 	interests[25] 	12880
scalar tree_4_3_u05_r3_network.node[25].core_layer 	data[25] 	9446
scalar tree_4_3_u05_r3_network.node[25].content_store 	p_hit[25] 	0.2666149068323
scalar tree_4_3_u05_r3_network.node[25].content_store 	hits[25] 	3434
scalar tree_4_3_u05_r3_network.node[25].content_store 	misses[25] 	9446
scalar tree_4_3_u05_r3_network.node[25].content_store 	decision_yes[25] 	95
scalar tree_4_3_u05_r3_network.node[25].content_store 	decision_no[25] 	9351
scalar tree_4_3_u05_r3_network.node[25].content_store 	decision_ratio[25] 	0.010057167054838
scalar tree_4_3_u05_r3_network.node[26].core_layer 	interests[26] 	12683
scalar tree_4_3_u05_r3_network.node[26].core_layer 	data[26] 	9188
scalar tree_4_3_u05_r3_network.node[26].content_store 	p_hit[26] 	0.27556571789009
scalar tree_4_3_u05_r3_network.node[26].content_store 	hits[26] 	3495
scalar tree_4_3_u05_r3_network.node[26].content_store 	misses[26] 	9188
scalar tree_4_3_u05_r3_network.node[26].content_store 	decision_yes[26] 	97
scalar tree_4_3_u05_r3_network.node[26].content_store 	decision_no[26] 	9091
scalar tree_4_3_u05_r3_network.node[26].content_store 	decision_ratio[26] 	0.010557248585111
scalar tree_4_3_u05_r3_network.node[27].core_layer 	interests[27] 	13453
scalar tree_4_3_u05_r3_network.node[27].core_layer 	data[27] 	9058
scalar tree_4_3_u05_r3_network.node[27].content_store 	p_hit[27] 	0.32669293094477
scalar tree_4_3_u05_r3_network.node[27].content_store 	hits[27] 	4395
scalar tree_4_3_u05_r3_network.node[27].content_store 	misses[27] 	9058
scalar tree_4_3_u05_r3_network.node[27].content_store 	decision_yes[27] 	96
scalar tree_4_3_u05_r3_network.node[27].content_store 	decision_no[27] 	8962
scalar tree_4_3_u05_r3_network.node[27].content_store 	decision_ratio[27] 	0.010598366085229
scalar tree_4_3_u05_r3_network.node[28].core_layer 	interests[28] 	12594
scalar tree_4_3_u05_r3_network.node[28].core_layer 	data[28] 	9028
scalar tree_4_3_u05_r3_network.node[28].content_store 	p_hit[28] 	0.28315070668572
scalar tree_4_3_u05_r3_network.node[28].content_store 	hits[28] 	3566
scalar tree_4_3_u05_r3_network.node[28].content_store 	misses[28] 	9028
scalar tree_4_3_u05_r3_network.node[28].content_store 	decision_yes[28] 	82
scalar tree_4_3_u05_r3_network.node[28].content_store 	decision_no[28] 	8946
scalar tree_4_3_u05_r3_network.node[28].content_store 	decision_ratio[28] 	0.0090828533451484
scalar tree_4_3_u05_r3_network.node[29].core_layer 	interests[29] 	13327
scalar tree_4_3_u05_r3_network.node[29].core_layer 	data[29] 	9234
scalar tree_4_3_u05_r3_network.node[29].content_store 	p_hit[29] 	0.30712088241915
scalar tree_4_3_u05_r3_network.node[29].content_store 	hits[29] 	4093
scalar tree_4_3_u05_r3_network.node[29].content_store 	misses[29] 	9234
scalar tree_4_3_u05_r3_network.node[29].content_store 	decision_yes[29] 	93
scalar tree_4_3_u05_r3_network.node[29].content_store 	decision_no[29] 	9141
scalar tree_4_3_u05_r3_network.node[29].content_store 	decision_ratio[29] 	0.010071474983756
scalar tree_4_3_u05_r3_network.node[30].core_layer 	interests[30] 	12921
scalar tree_4_3_u05_r3_network.node[30].core_layer 	data[30] 	9334
scalar tree_4_3_u05_r3_network.node[30].content_store 	p_hit[30] 	0.27761009209813
scalar tree_4_3_u05_r3_network.node[30].content_store 	hits[30] 	3587
scalar tree_4_3_u05_r3_network.node[30].content_store 	misses[30] 	9334
scalar tree_4_3_u05_r3_network.node[30].content_store 	decision_yes[30] 	104
scalar tree_4_3_u05_r3_network.node[30].content_store 	decision_no[30] 	9230
scalar tree_4_3_u05_r3_network.node[30].content_store 	decision_ratio[30] 	0.011142061281337
scalar tree_4_3_u05_r3_network.node[31].core_layer 	interests[31] 	12870
scalar tree_4_3_u05_r3_network.node[31].core_layer 	data[31] 	9239
scalar tree_4_3_u05_r3_network.node[31].content_store 	p_hit[31] 	0.28212898212898
scalar tree_4_3_u05_r3_network.node[31].content_store 	hits[31] 	3631
scalar tree_4_3_u05_r3_network.node[31].content_store 	misses[31] 	9239
scalar tree_4_3_u05_r3_network.node[31].content_store 	decision_yes[31] 	97
scalar tree_4_3_u05_r3_network.node[31].content_store 	decision_no[31] 	9142
scalar tree_4_3_u05_r3_network.node[31].content_store 	decision_ratio[31] 	0.010498971750189
scalar tree_4_3_u05_r3_network.node[32].core_layer 	interests[32] 	12703
scalar tree_4_3_u05_r3_network.node[32].core_layer 	data[32] 	9271
scalar tree_4_3_u05_r3_network.node[32].content_store 	p_hit[32] 	0.27017240022042
scalar tree_4_3_u05_r3_network.node[32].content_store 	hits[32] 	3432
scalar tree_4_3_u05_r3_network.node[32].content_store 	misses[32] 	9271
scalar tree_4_3_u05_r3_network.node[32].content_store 	decision_yes[32] 	104
scalar tree_4_3_u05_r3_network.node[32].content_store 	decision_no[32] 	9167
scalar tree_4_3_u05_r3_network.node[32].content_store 	decision_ratio[32] 	0.011217775860209
scalar tree_4_3_u05_r3_network.node[33].core_layer 	interests[33] 	13052
scalar tree_4_3_u05_r3_network.node[33].core_layer 	data[33] 	9457
scalar tree_4_3_u05_r3_network.node[33].content_store 	p_hit[33] 	0.27543671467974
scalar tree_4_3_u05_r3_network.node[33].content_store 	hits[33] 	3595
scalar tree_4_3_u05_r3_network.node[33].content_store 	misses[33] 	9457
scalar tree_4_3_u05_r3_network.node[33].content_store 	decision_yes[33] 	80
scalar tree_4_3_u05_r3_network.node[33].content_store 	decision_no[33] 	9377
scalar tree_4_3_u05_r3_network.node[33].content_store 	decision_ratio[33] 	0.0084593422861373
scalar tree_4_3_u05_r3_network.node[34].core_layer 	interests[34] 	14063
scalar tree_4_3_u05_r3_network.node[34].core_layer 	data[34] 	9226
scalar tree_4_3_u05_r3_network.node[34].content_store 	p_hit[34] 	0.34395221503235
scalar tree_4_3_u05_r3_network.node[34].content_store 	hits[34] 	4837
scalar tree_4_3_u05_r3_network.node[34].content_store 	misses[34] 	9226
scalar tree_4_3_u05_r3_network.node[34].content_store 	decision_yes[34] 	80
scalar tree_4_3_u05_r3_network.node[34].content_store 	decision_no[34] 	9146
scalar tree_4_3_u05_r3_network.node[34].content_store 	decision_ratio[34] 	0.0086711467591589
scalar tree_4_3_u05_r3_network.node[35].core_layer 	interests[35] 	13301
scalar tree_4_3_u05_r3_network.node[35].core_layer 	data[35] 	9363
scalar tree_4_3_u05_r3_network.node[35].content_store 	p_hit[35] 	0.29599278249756
scalar tree_4_3_u05_r3_network.node[35].content_store 	hits[35] 	3937
scalar tree_4_3_u05_r3_network.node[35].content_store 	misses[35] 	9364
scalar tree_4_3_u05_r3_network.node[35].content_store 	decision_yes[35] 	109
scalar tree_4_3_u05_r3_network.node[35].content_store 	decision_no[35] 	9254
scalar tree_4_3_u05_r3_network.node[35].content_store 	decision_ratio[35] 	0.011641567873545
scalar tree_4_3_u05_r3_network.node[36].core_layer 	interests[36] 	13281
scalar tree_4_3_u05_r3_network.node[36].core_layer 	data[36] 	9289
scalar tree_4_3_u05_r3_network.node[36].content_store 	p_hit[36] 	0.30050448008433
scalar tree_4_3_u05_r3_network.node[36].content_store 	hits[36] 	3991
scalar tree_4_3_u05_r3_network.node[36].content_store 	misses[36] 	9290
scalar tree_4_3_u05_r3_network.node[36].content_store 	decision_yes[36] 	100
scalar tree_4_3_u05_r3_network.node[36].content_store 	decision_no[36] 	9189
scalar tree_4_3_u05_r3_network.node[36].content_store 	decision_ratio[36] 	0.01076542146625
scalar tree_4_3_u05_r3_network.node[37].core_layer 	interests[37] 	13669
scalar tree_4_3_u05_r3_network.node[37].core_layer 	data[37] 	9403
scalar tree_4_3_u05_r3_network.node[37].content_store 	p_hit[37] 	0.31201989904163
scalar tree_4_3_u05_r3_network.node[37].content_store 	hits[37] 	4265
scalar tree_4_3_u05_r3_network.node[37].content_store 	misses[37] 	9404
scalar tree_4_3_u05_r3_network.node[37].content_store 	decision_yes[37] 	103
scalar tree_4_3_u05_r3_network.node[37].content_store 	decision_no[37] 	9300
scalar tree_4_3_u05_r3_network.node[37].content_store 	decision_ratio[37] 	0.010953950866745
scalar tree_4_3_u05_r3_network.node[38].core_layer 	interests[38] 	13920
scalar tree_4_3_u05_r3_network.node[38].core_layer 	data[38] 	9348
scalar tree_4_3_u05_r3_network.node[38].content_store 	p_hit[38] 	0.32844827586207
scalar tree_4_3_u05_r3_network.node[38].content_store 	hits[38] 	4572
scalar tree_4_3_u05_r3_network.node[38].content_store 	misses[38] 	9348
scalar tree_4_3_u05_r3_network.node[38].content_store 	decision_yes[38] 	80
scalar tree_4_3_u05_r3_network.node[38].content_store 	decision_no[38] 	9268
scalar tree_4_3_u05_r3_network.node[38].content_store 	decision_ratio[38] 	0.0085579803166453
scalar tree_4_3_u05_r3_network.node[39].core_layer 	interests[39] 	12371
scalar tree_4_3_u05_r3_network.node[39].core_layer 	data[39] 	9185
scalar tree_4_3_u05_r3_network.node[39].content_store 	p_hit[39] 	0.25753778999272
scalar tree_4_3_u05_r3_network.node[39].content_store 	hits[39] 	3186
scalar tree_4_3_u05_r3_network.node[39].content_store 	misses[39] 	9185
scalar tree_4_3_u05_r3_network.node[39].content_store 	decision_yes[39] 	78
scalar tree_4_3_u05_r3_network.node[39].content_store 	decision_no[39] 	9107
scalar tree_4_3_u05_r3_network.node[39].content_store 	decision_ratio[39] 	0.0084921066956995
scalar tree_4_3_u05_r3_network.client[13] 	hdistance[13] 	2.7936917443409
scalar tree_4_3_u05_r3_network.client[13] 	downloads[13] 	12016
scalar tree_4_3_u05_r3_network.client[13] 	avg_time[13] 	0.004432753349
scalar tree_4_3_u05_r3_network.client[14] 	hdistance[14] 	2.6786628146925
scalar tree_4_3_u05_r3_network.client[14] 	downloads[14] 	12115
scalar tree_4_3_u05_r3_network.client[14] 	avg_time[14] 	0.004289060121
scalar tree_4_3_u05_r3_network.client[15] 	hdistance[15] 	2.6776386700937
scalar tree_4_3_u05_r3_network.client[15] 	downloads[15] 	12061
scalar tree_4_3_u05_r3_network.client[15] 	avg_time[15] 	0.004285877065
scalar tree_4_3_u05_r3_network.client[16] 	hdistance[16] 	2.7163967273335
scalar tree_4_3_u05_r3_network.client[16] 	downloads[16] 	11978
scalar tree_4_3_u05_r3_network.client[16] 	avg_time[16] 	0.004377021552
scalar tree_4_3_u05_r3_network.client[17] 	hdistance[17] 	2.7518042306097
scalar tree_4_3_u05_r3_network.client[17] 	downloads[17] 	12055
scalar tree_4_3_u05_r3_network.client[17] 	avg_time[17] 	0.004425973692
scalar tree_4_3_u05_r3_network.client[18] 	hdistance[18] 	2.643693542991
scalar tree_4_3_u05_r3_network.client[18] 	downloads[18] 	11956
scalar tree_4_3_u05_r3_network.client[18] 	avg_time[18] 	0.004244241422
scalar tree_4_3_u05_r3_network.client[19] 	hdistance[19] 	2.6920074664857
scalar tree_4_3_u05_r3_network.client[19] 	downloads[19] 	11786
scalar tree_4_3_u05_r3_network.client[19] 	avg_time[19] 	0.004321464105
scalar tree_4_3_u05_r3_network.client[20] 	hdistance[20] 	2.6617298578199
scalar tree_4_3_u05_r3_network.client[20] 	downloads[20] 	11816
scalar tree_4_3_u05_r3_network.client[20] 	avg_time[20] 	0.004264553572
scalar tree_4_3_u05_r3_network.client[21] 	hdistance[21] 	2.6982464888224
scalar tree_4_3_u05_r3_network.client[21] 	downloads[21] 	12033
scalar tree_4_3_u05_r3_network.client[21] 	avg_time[21] 	0.004327429872
scalar tree_4_3_u05_r3_network.client[22] 	hdistance[22] 	2.7521240617009
scalar tree_4_3_u05_r3_network.client[22] 	downloads[22] 	12123
scalar tree_4_3_u05_r3_network.client[22] 	avg_time[22] 	0.004433058106
scalar tree_4_3_u05_r3_network.client[23] 	hdistance[23] 	2.7798726328138
scalar tree_4_3_u05_r3_network.client[23] 	downloads[23] 	11934
scalar tree_4_3_u05_r3_network.client[23] 	avg_time[23] 	0.004480975732
scalar tree_4_3_u05_r3_network.client[24] 	hdistance[24] 	2.7404376148322
scalar tree_4_3_u05_r3_network.client[24] 	downloads[24] 	11974
scalar tree_4_3_u05_r3_network.client[24] 	avg_time[24] 	0.004411889465
scalar tree_4_3_u05_r3_network.client[25] 	hdistance[25] 	2.7626048675139
scalar tree_4_3_u05_r3_network.client[25] 	downloads[25] 	12039
scalar tree_4_3_u05_r3_network.client[25] 	avg_time[25] 	0.00442511535
scalar tree_4_3_u05_r3_network.client[26] 	hdistance[26] 	2.7634045427679
scalar tree_4_3_u05_r3_network.client[26] 	downloads[26] 	11843
scalar tree_4_3_u05_r3_network.client[26] 	avg_time[26] 	0.004415224098
scalar tree_4_3_u05_r3_network.client[27] 	hdistance[27] 	2.6738269732963
scalar tree_4_3_u05_r3_network.client[27] 	downloads[27] 	11871
scalar tree_4_3_u05_r3_network.client[27] 	avg_time[27] 	0.004227105092
scalar tree_4_3_u05_r3_network.client[28] 	hdistance[28] 	2.7357623222951
scalar tree_4_3_u05_r3_network.client[28] 	downloads[28] 	11747
scalar tree_4_3_u05_r3_network.client[28] 	avg_time[28] 	0.00435515158
scalar tree_4_3_u05_r3_network.client[29] 	hdistance[29] 	2.7014134275618
scalar tree_4_3_u05_r3_network.client[29] 	downloads[29] 	11886
scalar tree_4_3_u05_r3_network.client[29] 	avg_time[29] 	0.004292360318
scalar tree_4_3_u05_r3_network.client[30] 	hdistance[30] 	2.7227128811865
scalar tree_4_3_u05_r3_network.client[30] 	downloads[30] 	12002
scalar tree_4_3_u05_r3_network.client[30] 	avg_time[30] 	0.004349438781
scalar tree_4_3_u05_r3_network.client[31] 	hdistance[31] 	2.7346594740391
scalar tree_4_3_u05_r3_network.client[31] 	downloads[31] 	11864
scalar tree_4_3_u05_r3_network.client[31] 	avg_time[31] 	0.004344568836
scalar tree_4_3_u05_r3_network.client[32] 	hdistance[32] 	2.7485709482179
scalar tree_4_3_u05_r3_network.client[32] 	downloads[32] 	11896
scalar tree_4_3_u05_r3_network.client[32] 	avg_time[32] 	0.004358695471
scalar tree_4_3_u05_r3_network.client[33] 	hdistance[33] 	2.7523524023649
scalar tree_4_3_u05_r3_network.client[33] 	downloads[33] 	12009
scalar tree_4_3_u05_r3_network.client[33] 	avg_time[33] 	0.004367221606
scalar tree_4_3_u05_r3_network.client[34] 	hdistance[34] 	2.660938421363
scalar tree_4_3_u05_r3_network.client[34] 	downloads[34] 	11871
scalar tree_4_3_u05_r3_network.client[34] 	avg_time[34] 	0.004247322476
scalar tree_4_3_u05_r3_network.client[35] 	hdistance[35] 	2.7397707304828
scalar tree_4_3_u05_r3_network.client[35] 	downloads[35] 	11951
scalar tree_4_3_u05_r3_network.client[35] 	avg_time[35] 	0.004434612698
scalar tree_4_3_u05_r3_network.client[36] 	hdistance[36] 	2.7250521050438
scalar tree_4_3_u05_r3_network.client[36] 	downloads[36] 	11995
scalar tree_4_3_u05_r3_network.client[36] 	avg_time[36] 	0.00438936045
scalar tree_4_3_u05_r3_network.client[37] 	hdistance[37] 	2.675593276203
scalar tree_4_3_u05_r3_network.client[37] 	downloads[37] 	12136
scalar tree_4_3_u05_r3_network.client[37] 	avg_time[37] 	0.00421601163
scalar tree_4_3_u05_r3_network.client[38] 	hdistance[38] 	2.6640528270739
scalar tree_4_3_u05_r3_network.client[38] 	downloads[38] 	12115
scalar tree_4_3_u05_r3_network.client[38] 	avg_time[38] 	0.004264132342
scalar tree_4_3_u05_r3_network.client[39] 	hdistance[39] 	2.7746277445949
scalar tree_4_3_u05_r3_network.client[39] 	downloads[39] 	11887
scalar tree_4_3_u05_r3_network.client[39] 	avg_time[39] 	0.004415745335
