version 2
run General-109-20160819-03:24:47-14109
attr a 0.9
attr cd fix0.01
attr configname General
attr cr lru
attr datetime 20160819-03:24:47
attr experiment General
attr fsize 1
attr inifile hw5115/scenario_A/NRR-FIX0.01.ini
attr iterationvars "$name=tree_4_3, $un=05, $rep=10, $cd=fix0.01, $cr=lru, $fsize=1, $a=0.9, $sl=nrr, $ttl=1000, $variance=0.05"
attr iterationvars2 "$name=tree_4_3, $un=05, $rep=10, $cd=fix0.01, $cr=lru, $fsize=1, $a=0.9, $sl=nrr, $ttl=1000, $variance=0.05, $repetition=0"
attr measurement "$name=tree_4_3, $un=05, $rep=10, $cd=fix0.01, $cr=lru, $fsize=1, $a=0.9, $sl=nrr, $ttl=1000, $variance=0.05"
attr name tree_4_3
attr network networks.${name}_u${un}_r${rep}_network
attr processid 14109
attr rep 10
attr repetition 0
attr replication #0
attr resultdir results
attr runnumber 109
attr seedset 10
attr sl nrr
attr ttl 1000
attr un 05
attr variance 0.05

scalar . 	a 	0.9
scalar . 	fsize 	1
scalar . 	rep 	10
scalar . 	ttl 	1000
scalar . 	un 	05
scalar . 	variance 	0.05
scalar tree_4_3_u05_r10_network.content_distribution 	repo-0 	0
scalar tree_4_3_u05_r10_network.content_distribution 	client-0 	13
scalar tree_4_3_u05_r10_network.content_distribution 	client-1 	14
scalar tree_4_3_u05_r10_network.content_distribution 	client-2 	15
scalar tree_4_3_u05_r10_network.content_distribution 	client-3 	16
scalar tree_4_3_u05_r10_network.content_distribution 	client-4 	17
scalar tree_4_3_u05_r10_network.content_distribution 	client-5 	18
scalar tree_4_3_u05_r10_network.content_distribution 	client-6 	19
scalar tree_4_3_u05_r10_network.content_distribution 	client-7 	20
scalar tree_4_3_u05_r10_network.content_distribution 	client-8 	21
scalar tree_4_3_u05_r10_network.content_distribution 	client-9 	22
scalar tree_4_3_u05_r10_network.content_distribution 	client-10 	23
scalar tree_4_3_u05_r10_network.content_distribution 	client-11 	24
scalar tree_4_3_u05_r10_network.content_distribution 	client-12 	25
scalar tree_4_3_u05_r10_network.content_distribution 	client-13 	26
scalar tree_4_3_u05_r10_network.content_distribution 	client-14 	27
scalar tree_4_3_u05_r10_network.content_distribution 	client-15 	28
scalar tree_4_3_u05_r10_network.content_distribution 	client-16 	29
scalar tree_4_3_u05_r10_network.content_distribution 	client-17 	30
scalar tree_4_3_u05_r10_network.content_distribution 	client-18 	31
scalar tree_4_3_u05_r10_network.content_distribution 	client-19 	32
scalar tree_4_3_u05_r10_network.content_distribution 	client-20 	33
scalar tree_4_3_u05_r10_network.content_distribution 	client-21 	34
scalar tree_4_3_u05_r10_network.content_distribution 	client-22 	35
scalar tree_4_3_u05_r10_network.content_distribution 	client-23 	36
scalar tree_4_3_u05_r10_network.content_distribution 	client-24 	37
scalar tree_4_3_u05_r10_network.content_distribution 	client-25 	38
scalar tree_4_3_u05_r10_network.content_distribution 	client-26 	39
scalar tree_4_3_u05_r10_network.content_distribution 	repo-0_card 	100000
scalar tree_4_3_u05_r10_network.content_distribution 	repo-0_price 	0
scalar tree_4_3_u05_r10_network.statistics 	stabilization_time 	2033
scalar tree_4_3_u05_r10_network.statistics 	p_hit 	0.22523512349663
scalar tree_4_3_u05_r10_network.statistics 	interests 	25338.3
scalar tree_4_3_u05_r10_network.statistics 	data 	17236.35
scalar tree_4_3_u05_r10_network.statistics 	hdistance 	2.7075841456499
scalar tree_4_3_u05_r10_network.statistics 	avg_time 	0.00425496692
scalar tree_4_3_u05_r10_network.statistics 	downloads 	324083
scalar tree_4_3_u05_r10_network.statistics 	total_cost 	0
scalar tree_4_3_u05_r10_network.statistics 	total_replicas 	100000
scalar tree_4_3_u05_r10_network.statistics 	inner_hit 	0.41989243496265
scalar tree_4_3_u05_r10_network.node[0].core_layer 	interests[0] 	189700
scalar tree_4_3_u05_r10_network.node[0].core_layer 	repo_load[0] 	188003
scalar tree_4_3_u05_r10_network.node[0].core_layer 	data[0] 	0
scalar tree_4_3_u05_r10_network.node[0].core_layer 	repo_int[0] 	188003
scalar tree_4_3_u05_r10_network.node[0].content_store 	p_hit[0] 	0.0089457037427517
scalar tree_4_3_u05_r10_network.node[0].content_store 	hits[0] 	1697
scalar tree_4_3_u05_r10_network.node[0].content_store 	misses[0] 	188003
scalar tree_4_3_u05_r10_network.node[0].content_store 	decision_yes[0] 	1955
scalar tree_4_3_u05_r10_network.node[0].content_store 	decision_no[0] 	186048
scalar tree_4_3_u05_r10_network.node[0].content_store 	decision_ratio[0] 	0.01039877023239
scalar tree_4_3_u05_r10_network.node[1].core_layer 	interests[1] 	66148
scalar tree_4_3_u05_r10_network.node[1].core_layer 	data[1] 	65057
scalar tree_4_3_u05_r10_network.node[1].content_store 	p_hit[1] 	0.01652355324424
scalar tree_4_3_u05_r10_network.node[1].content_store 	hits[1] 	1093
scalar tree_4_3_u05_r10_network.node[1].content_store 	misses[1] 	65055
scalar tree_4_3_u05_r10_network.node[1].content_store 	decision_yes[1] 	648
scalar tree_4_3_u05_r10_network.node[1].content_store 	decision_no[1] 	64409
scalar tree_4_3_u05_r10_network.node[1].content_store 	decision_ratio[1] 	0.0099604961802727
scalar tree_4_3_u05_r10_network.node[2].core_layer 	interests[2] 	71143
scalar tree_4_3_u05_r10_network.node[2].core_layer 	data[2] 	69652
scalar tree_4_3_u05_r10_network.node[2].content_store 	p_hit[2] 	0.020943733044713
scalar tree_4_3_u05_r10_network.node[2].content_store 	hits[2] 	1490
scalar tree_4_3_u05_r10_network.node[2].content_store 	misses[2] 	69653
scalar tree_4_3_u05_r10_network.node[2].content_store 	decision_yes[2] 	700
scalar tree_4_3_u05_r10_network.node[2].content_store 	decision_no[2] 	68952
scalar tree_4_3_u05_r10_network.node[2].content_store 	decision_ratio[2] 	0.010049962671567
scalar tree_4_3_u05_r10_network.node[3].core_layer 	interests[3] 	71556
scalar tree_4_3_u05_r10_network.node[3].core_layer 	data[3] 	69819
scalar tree_4_3_u05_r10_network.node[3].content_store 	p_hit[3] 	0.024274693946
scalar tree_4_3_u05_r10_network.node[3].content_store 	hits[3] 	1737
scalar tree_4_3_u05_r10_network.node[3].content_store 	misses[3] 	69819
scalar tree_4_3_u05_r10_network.node[3].content_store 	decision_yes[3] 	721
scalar tree_4_3_u05_r10_network.node[3].content_store 	decision_no[3] 	69098
scalar tree_4_3_u05_r10_network.node[3].content_store 	decision_ratio[3] 	0.010326701900629
scalar tree_4_3_u05_r10_network.node[4].core_layer 	interests[4] 	44003
scalar tree_4_3_u05_r10_network.node[4].core_layer 	data[4] 	41080
scalar tree_4_3_u05_r10_network.node[4].content_store 	p_hit[4] 	0.066404563325228
scalar tree_4_3_u05_r10_network.node[4].content_store 	hits[4] 	2922
scalar tree_4_3_u05_r10_network.node[4].content_store 	misses[4] 	41081
scalar tree_4_3_u05_r10_network.node[4].content_store 	decision_yes[4] 	386
scalar tree_4_3_u05_r10_network.node[4].content_store 	decision_no[4] 	40694
scalar tree_4_3_u05_r10_network.node[4].content_store 	decision_ratio[4] 	0.009396299902629
scalar tree_4_3_u05_r10_network.node[5].core_layer 	interests[5] 	27569
scalar tree_4_3_u05_r10_network.node[5].core_layer 	data[5] 	24494
scalar tree_4_3_u05_r10_network.node[5].content_store 	p_hit[5] 	0.11161086727846
scalar tree_4_3_u05_r10_network.node[5].content_store 	hits[5] 	3077
scalar tree_4_3_u05_r10_network.node[5].content_store 	misses[5] 	24492
scalar tree_4_3_u05_r10_network.node[5].content_store 	decision_yes[5] 	245
scalar tree_4_3_u05_r10_network.node[5].content_store 	decision_no[5] 	24249
scalar tree_4_3_u05_r10_network.node[5].content_store 	decision_ratio[5] 	0.010002449579489
scalar tree_4_3_u05_r10_network.node[6].core_layer 	interests[6] 	17005
scalar tree_4_3_u05_r10_network.node[6].core_layer 	data[6] 	13049
scalar tree_4_3_u05_r10_network.node[6].content_store 	p_hit[6] 	0.23263745957071
scalar tree_4_3_u05_r10_network.node[6].content_store 	hits[6] 	3956
scalar tree_4_3_u05_r10_network.node[6].content_store 	misses[6] 	13049
scalar tree_4_3_u05_r10_network.node[6].content_store 	decision_yes[6] 	118
scalar tree_4_3_u05_r10_network.node[6].content_store 	decision_no[6] 	12931
scalar tree_4_3_u05_r10_network.node[6].content_store 	decision_ratio[6] 	0.0090428385316883
scalar tree_4_3_u05_r10_network.node[7].core_layer 	interests[7] 	27176
scalar tree_4_3_u05_r10_network.node[7].core_layer 	data[7] 	25173
scalar tree_4_3_u05_r10_network.node[7].content_store 	p_hit[7] 	0.073704739476008
scalar tree_4_3_u05_r10_network.node[7].content_store 	hits[7] 	2003
scalar tree_4_3_u05_r10_network.node[7].content_store 	misses[7] 	25173
scalar tree_4_3_u05_r10_network.node[7].content_store 	decision_yes[7] 	275
scalar tree_4_3_u05_r10_network.node[7].content_store 	decision_no[7] 	24898
scalar tree_4_3_u05_r10_network.node[7].content_store 	decision_ratio[7] 	0.010924403130338
scalar tree_4_3_u05_r10_network.node[8].core_layer 	interests[8] 	29915
scalar tree_4_3_u05_r10_network.node[8].core_layer 	data[8] 	27013
scalar tree_4_3_u05_r10_network.node[8].content_store 	p_hit[8] 	0.097008189871302
scalar tree_4_3_u05_r10_network.node[8].content_store 	hits[8] 	2902
scalar tree_4_3_u05_r10_network.node[8].content_store 	misses[8] 	27013
scalar tree_4_3_u05_r10_network.node[8].content_store 	decision_yes[8] 	252
scalar tree_4_3_u05_r10_network.node[8].content_store 	decision_no[8] 	26761
scalar tree_4_3_u05_r10_network.node[8].content_store 	decision_ratio[8] 	0.0093288416688261
scalar tree_4_3_u05_r10_network.node[9].core_layer 	interests[9] 	29887
scalar tree_4_3_u05_r10_network.node[9].core_layer 	data[9] 	27018
scalar tree_4_3_u05_r10_network.node[9].content_store 	p_hit[9] 	0.095994914176732
scalar tree_4_3_u05_r10_network.node[9].content_store 	hits[9] 	2869
scalar tree_4_3_u05_r10_network.node[9].content_store 	misses[9] 	27018
scalar tree_4_3_u05_r10_network.node[9].content_store 	decision_yes[9] 	308
scalar tree_4_3_u05_r10_network.node[9].content_store 	decision_no[9] 	26710
scalar tree_4_3_u05_r10_network.node[9].content_store 	decision_ratio[9] 	0.011399807535717
scalar tree_4_3_u05_r10_network.node[10].core_layer 	interests[10] 	45423
scalar tree_4_3_u05_r10_network.node[10].core_layer 	data[10] 	42291
scalar tree_4_3_u05_r10_network.node[10].content_store 	p_hit[10] 	0.068951852585694
scalar tree_4_3_u05_r10_network.node[10].content_store 	hits[10] 	3132
scalar tree_4_3_u05_r10_network.node[10].content_store 	misses[10] 	42291
scalar tree_4_3_u05_r10_network.node[10].content_store 	decision_yes[10] 	415
scalar tree_4_3_u05_r10_network.node[10].content_store 	decision_no[10] 	41876
scalar tree_4_3_u05_r10_network.node[10].content_store 	decision_ratio[10] 	0.0098129625688681
scalar tree_4_3_u05_r10_network.node[11].core_layer 	interests[11] 	19717
scalar tree_4_3_u05_r10_network.node[11].core_layer 	data[11] 	17309
scalar tree_4_3_u05_r10_network.node[11].content_store 	p_hit[11] 	0.12212811279606
scalar tree_4_3_u05_r10_network.node[11].content_store 	hits[11] 	2408
scalar tree_4_3_u05_r10_network.node[11].content_store 	misses[11] 	17309
scalar tree_4_3_u05_r10_network.node[11].content_store 	decision_yes[11] 	167
scalar tree_4_3_u05_r10_network.node[11].content_store 	decision_no[11] 	17142
scalar tree_4_3_u05_r10_network.node[11].content_store 	decision_ratio[11] 	0.0096481599168063
scalar tree_4_3_u05_r10_network.node[12].core_layer 	interests[12] 	22583
scalar tree_4_3_u05_r10_network.node[12].core_layer 	data[12] 	19047
scalar tree_4_3_u05_r10_network.node[12].content_store 	p_hit[12] 	0.15657795687021
scalar tree_4_3_u05_r10_network.node[12].content_store 	hits[12] 	3536
scalar tree_4_3_u05_r10_network.node[12].content_store 	misses[12] 	19047
scalar tree_4_3_u05_r10_network.node[12].content_store 	decision_yes[12] 	199
scalar tree_4_3_u05_r10_network.node[12].content_store 	decision_no[12] 	18848
scalar tree_4_3_u05_r10_network.node[12].content_store 	decision_ratio[12] 	0.010447839554786
scalar tree_4_3_u05_r10_network.node[13].core_layer 	interests[13] 	12764
scalar tree_4_3_u05_r10_network.node[13].core_layer 	data[13] 	9300
scalar tree_4_3_u05_r10_network.node[13].content_store 	p_hit[13] 	0.2713882795362
scalar tree_4_3_u05_r10_network.node[13].content_store 	hits[13] 	3464
scalar tree_4_3_u05_r10_network.node[13].content_store 	misses[13] 	9300
scalar tree_4_3_u05_r10_network.node[13].content_store 	decision_yes[13] 	97
scalar tree_4_3_u05_r10_network.node[13].content_store 	decision_no[13] 	9203
scalar tree_4_3_u05_r10_network.node[13].content_store 	decision_ratio[13] 	0.010430107526882
scalar tree_4_3_u05_r10_network.node[14].core_layer 	interests[14] 	13340
scalar tree_4_3_u05_r10_network.node[14].core_layer 	data[14] 	9125
scalar tree_4_3_u05_r10_network.node[14].content_store 	p_hit[14] 	0.31596701649175
scalar tree_4_3_u05_r10_network.node[14].content_store 	hits[14] 	4215
scalar tree_4_3_u05_r10_network.node[14].content_store 	misses[14] 	9125
scalar tree_4_3_u05_r10_network.node[14].content_store 	decision_yes[14] 	110
scalar tree_4_3_u05_r10_network.node[14].content_store 	decision_no[14] 	9015
scalar tree_4_3_u05_r10_network.node[14].content_store 	decision_ratio[14] 	0.012054794520548
scalar tree_4_3_u05_r10_network.node[15].core_layer 	interests[15] 	12804
scalar tree_4_3_u05_r10_network.node[15].core_layer 	data[15] 	9283
scalar tree_4_3_u05_r10_network.node[15].content_store 	p_hit[15] 	0.27499218994064
scalar tree_4_3_u05_r10_network.node[15].content_store 	hits[15] 	3521
scalar tree_4_3_u05_r10_network.node[15].content_store 	misses[15] 	9283
scalar tree_4_3_u05_r10_network.node[15].content_store 	decision_yes[15] 	84
scalar tree_4_3_u05_r10_network.node[15].content_store 	decision_no[15] 	9199
scalar tree_4_3_u05_r10_network.node[15].content_store 	decision_ratio[15] 	0.0090487988796725
scalar tree_4_3_u05_r10_network.node[16].core_layer 	interests[16] 	13288
scalar tree_4_3_u05_r10_network.node[16].core_layer 	data[16] 	9277
scalar tree_4_3_u05_r10_network.node[16].content_store 	p_hit[16] 	0.30177603853101
scalar tree_4_3_u05_r10_network.node[16].content_store 	hits[16] 	4010
scalar tree_4_3_u05_r10_network.node[16].content_store 	misses[16] 	9278
scalar tree_4_3_u05_r10_network.node[16].content_store 	decision_yes[16] 	93
scalar tree_4_3_u05_r10_network.node[16].content_store 	decision_no[16] 	9184
scalar tree_4_3_u05_r10_network.node[16].content_store 	decision_ratio[16] 	0.010024792497575
scalar tree_4_3_u05_r10_network.node[17].core_layer 	interests[17] 	12540
scalar tree_4_3_u05_r10_network.node[17].core_layer 	data[17] 	9181
scalar tree_4_3_u05_r10_network.node[17].content_store 	p_hit[17] 	0.26786283891547
scalar tree_4_3_u05_r10_network.node[17].content_store 	hits[17] 	3359
scalar tree_4_3_u05_r10_network.node[17].content_store 	misses[17] 	9181
scalar tree_4_3_u05_r10_network.node[17].content_store 	decision_yes[17] 	83
scalar tree_4_3_u05_r10_network.node[17].content_store 	decision_no[17] 	9098
scalar tree_4_3_u05_r10_network.node[17].content_store 	decision_ratio[17] 	0.0090404095414443
scalar tree_4_3_u05_r10_network.node[18].core_layer 	interests[18] 	13593
scalar tree_4_3_u05_r10_network.node[18].core_layer 	data[18] 	9225
scalar tree_4_3_u05_r10_network.node[18].content_store 	p_hit[18] 	0.32148900169205
scalar tree_4_3_u05_r10_network.node[18].content_store 	hits[18] 	4370
scalar tree_4_3_u05_r10_network.node[18].content_store 	misses[18] 	9223
scalar tree_4_3_u05_r10_network.node[18].content_store 	decision_yes[18] 	82
scalar tree_4_3_u05_r10_network.node[18].content_store 	decision_no[18] 	9143
scalar tree_4_3_u05_r10_network.node[18].content_store 	decision_ratio[18] 	0.0088888888888889
scalar tree_4_3_u05_r10_network.node[19].core_layer 	interests[19] 	13742
scalar tree_4_3_u05_r10_network.node[19].core_layer 	data[19] 	9248
scalar tree_4_3_u05_r10_network.node[19].content_store 	p_hit[19] 	0.32702663367778
scalar tree_4_3_u05_r10_network.node[19].content_store 	hits[19] 	4494
scalar tree_4_3_u05_r10_network.node[19].content_store 	misses[19] 	9248
scalar tree_4_3_u05_r10_network.node[19].content_store 	decision_yes[19] 	74
scalar tree_4_3_u05_r10_network.node[19].content_store 	decision_no[19] 	9174
scalar tree_4_3_u05_r10_network.node[19].content_store 	decision_ratio[19] 	0.0080017301038062
scalar tree_4_3_u05_r10_network.node[20].core_layer 	interests[20] 	13424
scalar tree_4_3_u05_r10_network.node[20].core_layer 	data[20] 	9265
scalar tree_4_3_u05_r10_network.node[20].content_store 	p_hit[20] 	0.30989272943981
scalar tree_4_3_u05_r10_network.node[20].content_store 	hits[20] 	4160
scalar tree_4_3_u05_r10_network.node[20].content_store 	misses[20] 	9264
scalar tree_4_3_u05_r10_network.node[20].content_store 	decision_yes[20] 	87
scalar tree_4_3_u05_r10_network.node[20].content_store 	decision_no[20] 	9178
scalar tree_4_3_u05_r10_network.node[20].content_store 	decision_ratio[20] 	0.0093901780895845
scalar tree_4_3_u05_r10_network.node[21].core_layer 	interests[21] 	12669
scalar tree_4_3_u05_r10_network.node[21].core_layer 	data[21] 	9163
scalar tree_4_3_u05_r10_network.node[21].content_store 	p_hit[21] 	0.2767384955403
scalar tree_4_3_u05_r10_network.node[21].content_store 	hits[21] 	3506
scalar tree_4_3_u05_r10_network.node[21].content_store 	misses[21] 	9163
scalar tree_4_3_u05_r10_network.node[21].content_store 	decision_yes[21] 	89
scalar tree_4_3_u05_r10_network.node[21].content_store 	decision_no[21] 	9074
scalar tree_4_3_u05_r10_network.node[21].content_store 	decision_ratio[21] 	0.0097129760995307
scalar tree_4_3_u05_r10_network.node[22].core_layer 	interests[22] 	12557
scalar tree_4_3_u05_r10_network.node[22].core_layer 	data[22] 	9183
scalar tree_4_3_u05_r10_network.node[22].content_store 	p_hit[22] 	0.26861511507526
scalar tree_4_3_u05_r10_network.node[22].content_store 	hits[22] 	3373
scalar tree_4_3_u05_r10_network.node[22].content_store 	misses[22] 	9184
scalar tree_4_3_u05_r10_network.node[22].content_store 	decision_yes[22] 	108
scalar tree_4_3_u05_r10_network.node[22].content_store 	decision_no[22] 	9075
scalar tree_4_3_u05_r10_network.node[22].content_store 	decision_ratio[22] 	0.011760862463247
scalar tree_4_3_u05_r10_network.node[23].core_layer 	interests[23] 	13379
scalar tree_4_3_u05_r10_network.node[23].core_layer 	data[23] 	9085
scalar tree_4_3_u05_r10_network.node[23].content_store 	p_hit[23] 	0.32095074370282
scalar tree_4_3_u05_r10_network.node[23].content_store 	hits[23] 	4294
scalar tree_4_3_u05_r10_network.node[23].content_store 	misses[23] 	9085
scalar tree_4_3_u05_r10_network.node[23].content_store 	decision_yes[23] 	91
scalar tree_4_3_u05_r10_network.node[23].content_store 	decision_no[23] 	8994
scalar tree_4_3_u05_r10_network.node[23].content_store 	decision_ratio[23] 	0.010016510731976
scalar tree_4_3_u05_r10_network.node[24].core_layer 	interests[24] 	13468
scalar tree_4_3_u05_r10_network.node[24].core_layer 	data[24] 	9233
scalar tree_4_3_u05_r10_network.node[24].content_store 	p_hit[24] 	0.31444906444906
scalar tree_4_3_u05_r10_network.node[24].content_store 	hits[24] 	4235
scalar tree_4_3_u05_r10_network.node[24].content_store 	misses[24] 	9233
scalar tree_4_3_u05_r10_network.node[24].content_store 	decision_yes[24] 	92
scalar tree_4_3_u05_r10_network.node[24].content_store 	decision_no[24] 	9141
scalar tree_4_3_u05_r10_network.node[24].content_store 	decision_ratio[24] 	0.0099642586374959
scalar tree_4_3_u05_r10_network.node[25].core_layer 	interests[25] 	12844
scalar tree_4_3_u05_r10_network.node[25].core_layer 	data[25] 	9163
scalar tree_4_3_u05_r10_network.node[25].content_store 	p_hit[25] 	0.28659296169418
scalar tree_4_3_u05_r10_network.node[25].content_store 	hits[25] 	3681
scalar tree_4_3_u05_r10_network.node[25].content_store 	misses[25] 	9163
scalar tree_4_3_u05_r10_network.node[25].content_store 	decision_yes[25] 	89
scalar tree_4_3_u05_r10_network.node[25].content_store 	decision_no[25] 	9074
scalar tree_4_3_u05_r10_network.node[25].content_store 	decision_ratio[25] 	0.0097129760995307
scalar tree_4_3_u05_r10_network.node[26].core_layer 	interests[26] 	12795
scalar tree_4_3_u05_r10_network.node[26].core_layer 	data[26] 	9194
scalar tree_4_3_u05_r10_network.node[26].content_store 	p_hit[26] 	0.28143806174287
scalar tree_4_3_u05_r10_network.node[26].content_store 	hits[26] 	3601
scalar tree_4_3_u05_r10_network.node[26].content_store 	misses[26] 	9194
scalar tree_4_3_u05_r10_network.node[26].content_store 	decision_yes[26] 	97
scalar tree_4_3_u05_r10_network.node[26].content_store 	decision_no[26] 	9097
scalar tree_4_3_u05_r10_network.node[26].content_store 	decision_ratio[26] 	0.010550358929737
scalar tree_4_3_u05_r10_network.node[27].core_layer 	interests[27] 	12689
scalar tree_4_3_u05_r10_network.node[27].core_layer 	data[27] 	9257
scalar tree_4_3_u05_r10_network.node[27].content_store 	p_hit[27] 	0.27047048624793
scalar tree_4_3_u05_r10_network.node[27].content_store 	hits[27] 	3432
scalar tree_4_3_u05_r10_network.node[27].content_store 	misses[27] 	9257
scalar tree_4_3_u05_r10_network.node[27].content_store 	decision_yes[27] 	81
scalar tree_4_3_u05_r10_network.node[27].content_store 	decision_no[27] 	9176
scalar tree_4_3_u05_r10_network.node[27].content_store 	decision_ratio[27] 	0.008750135032948
scalar tree_4_3_u05_r10_network.node[28].core_layer 	interests[28] 	12869
scalar tree_4_3_u05_r10_network.node[28].core_layer 	data[28] 	9183
scalar tree_4_3_u05_r10_network.node[28].content_store 	p_hit[28] 	0.28642474162717
scalar tree_4_3_u05_r10_network.node[28].content_store 	hits[28] 	3686
scalar tree_4_3_u05_r10_network.node[28].content_store 	misses[28] 	9183
scalar tree_4_3_u05_r10_network.node[28].content_store 	decision_yes[28] 	98
scalar tree_4_3_u05_r10_network.node[28].content_store 	decision_no[28] 	9085
scalar tree_4_3_u05_r10_network.node[28].content_store 	decision_ratio[28] 	0.01067189371665
scalar tree_4_3_u05_r10_network.node[29].core_layer 	interests[29] 	12837
scalar tree_4_3_u05_r10_network.node[29].core_layer 	data[29] 	9329
scalar tree_4_3_u05_r10_network.node[29].content_store 	p_hit[29] 	0.27327257147309
scalar tree_4_3_u05_r10_network.node[29].content_store 	hits[29] 	3508
scalar tree_4_3_u05_r10_network.node[29].content_store 	misses[29] 	9329
scalar tree_4_3_u05_r10_network.node[29].content_store 	decision_yes[29] 	108
scalar tree_4_3_u05_r10_network.node[29].content_store 	decision_no[29] 	9221
scalar tree_4_3_u05_r10_network.node[29].content_store 	decision_ratio[29] 	0.011576803515918
scalar tree_4_3_u05_r10_network.node[30].core_layer 	interests[30] 	12888
scalar tree_4_3_u05_r10_network.node[30].core_layer 	data[30] 	9021
scalar tree_4_3_u05_r10_network.node[30].content_store 	p_hit[30] 	0.30004655493482
scalar tree_4_3_u05_r10_network.node[30].content_store 	hits[30] 	3867
scalar tree_4_3_u05_r10_network.node[30].content_store 	misses[30] 	9021
scalar tree_4_3_u05_r10_network.node[30].content_store 	decision_yes[30] 	97
scalar tree_4_3_u05_r10_network.node[30].content_store 	decision_no[30] 	8924
scalar tree_4_3_u05_r10_network.node[30].content_store 	decision_ratio[30] 	0.010752688172043
scalar tree_4_3_u05_r10_network.node[31].core_layer 	interests[31] 	12733
scalar tree_4_3_u05_r10_network.node[31].core_layer 	data[31] 	9154
scalar tree_4_3_u05_r10_network.node[31].content_store 	p_hit[31] 	0.28108065656169
scalar tree_4_3_u05_r10_network.node[31].content_store 	hits[31] 	3579
scalar tree_4_3_u05_r10_network.node[31].content_store 	misses[31] 	9154
scalar tree_4_3_u05_r10_network.node[31].content_store 	decision_yes[31] 	103
scalar tree_4_3_u05_r10_network.node[31].content_store 	decision_no[31] 	9051
scalar tree_4_3_u05_r10_network.node[31].content_store 	decision_ratio[31] 	0.011251911732576
scalar tree_4_3_u05_r10_network.node[32].core_layer 	interests[32] 	12775
scalar tree_4_3_u05_r10_network.node[32].core_layer 	data[32] 	9036
scalar tree_4_3_u05_r10_network.node[32].content_store 	p_hit[32] 	0.29275929549902
scalar tree_4_3_u05_r10_network.node[32].content_store 	hits[32] 	3740
scalar tree_4_3_u05_r10_network.node[32].content_store 	misses[32] 	9035
scalar tree_4_3_u05_r10_network.node[32].content_store 	decision_yes[32] 	95
scalar tree_4_3_u05_r10_network.node[32].content_store 	decision_no[32] 	8941
scalar tree_4_3_u05_r10_network.node[32].content_store 	decision_ratio[32] 	0.010513501549358
scalar tree_4_3_u05_r10_network.node[33].core_layer 	interests[33] 	13337
scalar tree_4_3_u05_r10_network.node[33].core_layer 	data[33] 	9235
scalar tree_4_3_u05_r10_network.node[33].content_store 	p_hit[33] 	0.30756541950963
scalar tree_4_3_u05_r10_network.node[33].content_store 	hits[33] 	4102
scalar tree_4_3_u05_r10_network.node[33].content_store 	misses[33] 	9235
scalar tree_4_3_u05_r10_network.node[33].content_store 	decision_yes[33] 	99
scalar tree_4_3_u05_r10_network.node[33].content_store 	decision_no[33] 	9136
scalar tree_4_3_u05_r10_network.node[33].content_store 	decision_ratio[33] 	0.010720086626963
scalar tree_4_3_u05_r10_network.node[34].core_layer 	interests[34] 	13370
scalar tree_4_3_u05_r10_network.node[34].core_layer 	data[34] 	9267
scalar tree_4_3_u05_r10_network.node[34].content_store 	p_hit[34] 	0.30680628272251
scalar tree_4_3_u05_r10_network.node[34].content_store 	hits[34] 	4102
scalar tree_4_3_u05_r10_network.node[34].content_store 	misses[34] 	9268
scalar tree_4_3_u05_r10_network.node[34].content_store 	decision_yes[34] 	89
scalar tree_4_3_u05_r10_network.node[34].content_store 	decision_no[34] 	9178
scalar tree_4_3_u05_r10_network.node[34].content_store 	decision_ratio[34] 	0.009603971080177
scalar tree_4_3_u05_r10_network.node[35].core_layer 	interests[35] 	12634
scalar tree_4_3_u05_r10_network.node[35].core_layer 	data[35] 	9371
scalar tree_4_3_u05_r10_network.node[35].content_store 	p_hit[35] 	0.25835048282413
scalar tree_4_3_u05_r10_network.node[35].content_store 	hits[35] 	3264
scalar tree_4_3_u05_r10_network.node[35].content_store 	misses[35] 	9370
scalar tree_4_3_u05_r10_network.node[35].content_store 	decision_yes[35] 	98
scalar tree_4_3_u05_r10_network.node[35].content_store 	decision_no[35] 	9273
scalar tree_4_3_u05_r10_network.node[35].content_store 	decision_ratio[35] 	0.010457795326006
scalar tree_4_3_u05_r10_network.node[36].core_layer 	interests[36] 	13205
scalar tree_4_3_u05_r10_network.node[36].core_layer 	data[36] 	9085
scalar tree_4_3_u05_r10_network.node[36].content_store 	p_hit[36] 	0.31200302915562
scalar tree_4_3_u05_r10_network.node[36].content_store 	hits[36] 	4120
scalar tree_4_3_u05_r10_network.node[36].content_store 	misses[36] 	9085
scalar tree_4_3_u05_r10_network.node[36].content_store 	decision_yes[36] 	100
scalar tree_4_3_u05_r10_network.node[36].content_store 	decision_no[36] 	8985
scalar tree_4_3_u05_r10_network.node[36].content_store 	decision_ratio[36] 	0.011007154650523
scalar tree_4_3_u05_r10_network.node[37].core_layer 	interests[37] 	13345
scalar tree_4_3_u05_r10_network.node[37].core_layer 	data[37] 	9097
scalar tree_4_3_u05_r10_network.node[37].content_store 	p_hit[37] 	0.31832146871487
scalar tree_4_3_u05_r10_network.node[37].content_store 	hits[37] 	4248
scalar tree_4_3_u05_r10_network.node[37].content_store 	misses[37] 	9097
scalar tree_4_3_u05_r10_network.node[37].content_store 	decision_yes[37] 	91
scalar tree_4_3_u05_r10_network.node[37].content_store 	decision_no[37] 	9006
scalar tree_4_3_u05_r10_network.node[37].content_store 	decision_ratio[37] 	0.01000329779048
scalar tree_4_3_u05_r10_network.node[38].core_layer 	interests[38] 	12798
scalar tree_4_3_u05_r10_network.node[38].core_layer 	data[38] 	9236
scalar tree_4_3_u05_r10_network.node[38].content_store 	p_hit[38] 	0.27832473824035
scalar tree_4_3_u05_r10_network.node[38].content_store 	hits[38] 	3562
scalar tree_4_3_u05_r10_network.node[38].content_store 	misses[38] 	9236
scalar tree_4_3_u05_r10_network.node[38].content_store 	decision_yes[38] 	98
scalar tree_4_3_u05_r10_network.node[38].content_store 	decision_no[38] 	9138
scalar tree_4_3_u05_r10_network.node[38].content_store 	decision_ratio[38] 	0.010610653962754
scalar tree_4_3_u05_r10_network.node[39].core_layer 	interests[39] 	13020
scalar tree_4_3_u05_r10_network.node[39].core_layer 	data[39] 	9256
scalar tree_4_3_u05_r10_network.node[39].content_store 	p_hit[39] 	0.28909370199693
scalar tree_4_3_u05_r10_network.node[39].content_store 	hits[39] 	3764
scalar tree_4_3_u05_r10_network.node[39].content_store 	misses[39] 	9256
scalar tree_4_3_u05_r10_network.node[39].content_store 	decision_yes[39] 	87
scalar tree_4_3_u05_r10_network.node[39].content_store 	decision_no[39] 	9169
scalar tree_4_3_u05_r10_network.node[39].content_store 	decision_ratio[39] 	0.0093993085566119
scalar tree_4_3_u05_r10_network.client[13] 	hdistance[13] 	2.7315641534391
scalar tree_4_3_u05_r10_network.client[13] 	downloads[13] 	12096
scalar tree_4_3_u05_r10_network.client[13] 	avg_time[13] 	0.004289679526
scalar tree_4_3_u05_r10_network.client[14] 	hdistance[14] 	2.6556368473562
scalar tree_4_3_u05_r10_network.client[14] 	downloads[14] 	12028
scalar tree_4_3_u05_r10_network.client[14] 	avg_time[14] 	0.004125703716
scalar tree_4_3_u05_r10_network.client[15] 	hdistance[15] 	2.7310713688785
scalar tree_4_3_u05_r10_network.client[15] 	downloads[15] 	11966
scalar tree_4_3_u05_r10_network.client[15] 	avg_time[15] 	0.00429332811
scalar tree_4_3_u05_r10_network.client[16] 	hdistance[16] 	2.6435937628909
scalar tree_4_3_u05_r10_network.client[16] 	downloads[16] 	12121
scalar tree_4_3_u05_r10_network.client[16] 	avg_time[16] 	0.004116984027
scalar tree_4_3_u05_r10_network.client[17] 	hdistance[17] 	2.7564520170383
scalar tree_4_3_u05_r10_network.client[17] 	downloads[17] 	11973
scalar tree_4_3_u05_r10_network.client[17] 	avg_time[17] 	0.004312700557
scalar tree_4_3_u05_r10_network.client[18] 	hdistance[18] 	2.6342214820983
scalar tree_4_3_u05_r10_network.client[18] 	downloads[18] 	12010
scalar tree_4_3_u05_r10_network.client[18] 	avg_time[18] 	0.004174851293
scalar tree_4_3_u05_r10_network.client[19] 	hdistance[19] 	2.5974228496389
scalar tree_4_3_u05_r10_network.client[19] 	downloads[19] 	12184
scalar tree_4_3_u05_r10_network.client[19] 	avg_time[19] 	0.004112111207
scalar tree_4_3_u05_r10_network.client[20] 	hdistance[20] 	2.641309781703
scalar tree_4_3_u05_r10_network.client[20] 	downloads[20] 	12002
scalar tree_4_3_u05_r10_network.client[20] 	avg_time[20] 	0.004184132992
scalar tree_4_3_u05_r10_network.client[21] 	hdistance[21] 	2.7488537952114
scalar tree_4_3_u05_r10_network.client[21] 	downloads[21] 	11778
scalar tree_4_3_u05_r10_network.client[21] 	avg_time[21] 	0.004381555889
scalar tree_4_3_u05_r10_network.client[22] 	hdistance[22] 	2.7772453110799
scalar tree_4_3_u05_r10_network.client[22] 	downloads[22] 	12103
scalar tree_4_3_u05_r10_network.client[22] 	avg_time[22] 	0.004352172611
scalar tree_4_3_u05_r10_network.client[23] 	hdistance[23] 	2.6870651353844
scalar tree_4_3_u05_r10_network.client[23] 	downloads[23] 	11929
scalar tree_4_3_u05_r10_network.client[23] 	avg_time[23] 	0.004173356047
scalar tree_4_3_u05_r10_network.client[24] 	hdistance[24] 	2.6742776486217
scalar tree_4_3_u05_r10_network.client[24] 	downloads[24] 	12044
scalar tree_4_3_u05_r10_network.client[24] 	avg_time[24] 	0.004164892356
scalar tree_4_3_u05_r10_network.client[25] 	hdistance[25] 	2.7579729504091
scalar tree_4_3_u05_r10_network.client[25] 	downloads[25] 	11978
scalar tree_4_3_u05_r10_network.client[25] 	avg_time[25] 	0.004318247143
scalar tree_4_3_u05_r10_network.client[26] 	hdistance[26] 	2.7432141674942
scalar tree_4_3_u05_r10_network.client[26] 	downloads[26] 	12084
scalar tree_4_3_u05_r10_network.client[26] 	avg_time[26] 	0.004296753048
scalar tree_4_3_u05_r10_network.client[27] 	hdistance[27] 	2.7628530955754
scalar tree_4_3_u05_r10_network.client[27] 	downloads[27] 	12001
scalar tree_4_3_u05_r10_network.client[27] 	avg_time[27] 	0.0043293029
scalar tree_4_3_u05_r10_network.client[28] 	hdistance[28] 	2.7451795212766
scalar tree_4_3_u05_r10_network.client[28] 	downloads[28] 	12032
scalar tree_4_3_u05_r10_network.client[28] 	avg_time[28] 	0.004293547526
scalar tree_4_3_u05_r10_network.client[29] 	hdistance[29] 	2.7628823480914
scalar tree_4_3_u05_r10_network.client[29] 	downloads[29] 	12129
scalar tree_4_3_u05_r10_network.client[29] 	avg_time[29] 	0.004316758448
scalar tree_4_3_u05_r10_network.client[30] 	hdistance[30] 	2.7172114018223
scalar tree_4_3_u05_r10_network.client[30] 	downloads[30] 	11963
scalar tree_4_3_u05_r10_network.client[30] 	avg_time[30] 	0.004243581396
scalar tree_4_3_u05_r10_network.client[31] 	hdistance[31] 	2.7304552722376
scalar tree_4_3_u05_r10_network.client[31] 	downloads[31] 	11883
scalar tree_4_3_u05_r10_network.client[31] 	avg_time[31] 	0.004315237304
scalar tree_4_3_u05_r10_network.client[32] 	hdistance[32] 	2.7083507481401
scalar tree_4_3_u05_r10_network.client[32] 	downloads[32] 	11963
scalar tree_4_3_u05_r10_network.client[32] 	avg_time[32] 	0.0042828692
scalar tree_4_3_u05_r10_network.client[33] 	hdistance[33] 	2.6637382864793
scalar tree_4_3_u05_r10_network.client[33] 	downloads[33] 	11952
scalar tree_4_3_u05_r10_network.client[33] 	avg_time[33] 	0.004186241988
scalar tree_4_3_u05_r10_network.client[34] 	hdistance[34] 	2.6810824271603
scalar tree_4_3_u05_r10_network.client[34] 	downloads[34] 	12047
scalar tree_4_3_u05_r10_network.client[34] 	avg_time[34] 	0.004216550973
scalar tree_4_3_u05_r10_network.client[35] 	hdistance[35] 	2.7923076923077
scalar tree_4_3_u05_r10_network.client[35] 	downloads[35] 	11960
scalar tree_4_3_u05_r10_network.client[35] 	avg_time[35] 	0.004451669244
scalar tree_4_3_u05_r10_network.client[36] 	hdistance[36] 	2.6542972022114
scalar tree_4_3_u05_r10_network.client[36] 	downloads[36] 	11938
scalar tree_4_3_u05_r10_network.client[36] 	avg_time[36] 	0.004163675997
scalar tree_4_3_u05_r10_network.client[37] 	hdistance[37] 	2.6573426573426
scalar tree_4_3_u05_r10_network.client[37] 	downloads[37] 	11869
scalar tree_4_3_u05_r10_network.client[37] 	avg_time[37] 	0.004173052869
scalar tree_4_3_u05_r10_network.client[38] 	hdistance[38] 	2.7506709158001
scalar tree_4_3_u05_r10_network.client[38] 	downloads[38] 	11924
scalar tree_4_3_u05_r10_network.client[38] 	avg_time[38] 	0.004353401924
scalar tree_4_3_u05_r10_network.client[39] 	hdistance[39] 	2.6984990928583
scalar tree_4_3_u05_r10_network.client[39] 	downloads[39] 	12126
scalar tree_4_3_u05_r10_network.client[39] 	avg_time[39] 	0.004261748569
