version 2
run General-103-20160819-03:14:19-14109
attr a 0.9
attr cd fix0.01
attr configname General
attr cr lru
attr datetime 20160819-03:14:19
attr experiment General
attr fsize 1
attr inifile hw5115/scenario_A/NRR-FIX0.01.ini
attr iterationvars "$name=tree_4_3, $un=05, $rep=4, $cd=fix0.01, $cr=lru, $fsize=1, $a=0.9, $sl=nrr, $ttl=1000, $variance=0.05"
attr iterationvars2 "$name=tree_4_3, $un=05, $rep=4, $cd=fix0.01, $cr=lru, $fsize=1, $a=0.9, $sl=nrr, $ttl=1000, $variance=0.05, $repetition=0"
attr measurement "$name=tree_4_3, $un=05, $rep=4, $cd=fix0.01, $cr=lru, $fsize=1, $a=0.9, $sl=nrr, $ttl=1000, $variance=0.05"
attr name tree_4_3
attr network networks.${name}_u${un}_r${rep}_network
attr processid 14109
attr rep 4
attr repetition 0
attr replication #0
attr resultdir results
attr runnumber 103
attr seedset 4
attr sl nrr
attr ttl 1000
attr un 05
attr variance 0.05

scalar . 	a 	0.9
scalar . 	fsize 	1
scalar . 	rep 	4
scalar . 	ttl 	1000
scalar . 	un 	05
scalar . 	variance 	0.05
scalar tree_4_3_u05_r4_network.content_distribution 	repo-0 	0
scalar tree_4_3_u05_r4_network.content_distribution 	client-0 	13
scalar tree_4_3_u05_r4_network.content_distribution 	client-1 	14
scalar tree_4_3_u05_r4_network.content_distribution 	client-2 	15
scalar tree_4_3_u05_r4_network.content_distribution 	client-3 	16
scalar tree_4_3_u05_r4_network.content_distribution 	client-4 	17
scalar tree_4_3_u05_r4_network.content_distribution 	client-5 	18
scalar tree_4_3_u05_r4_network.content_distribution 	client-6 	19
scalar tree_4_3_u05_r4_network.content_distribution 	client-7 	20
scalar tree_4_3_u05_r4_network.content_distribution 	client-8 	21
scalar tree_4_3_u05_r4_network.content_distribution 	client-9 	22
scalar tree_4_3_u05_r4_network.content_distribution 	client-10 	23
scalar tree_4_3_u05_r4_network.content_distribution 	client-11 	24
scalar tree_4_3_u05_r4_network.content_distribution 	client-12 	25
scalar tree_4_3_u05_r4_network.content_distribution 	client-13 	26
scalar tree_4_3_u05_r4_network.content_distribution 	client-14 	27
scalar tree_4_3_u05_r4_network.content_distribution 	client-15 	28
scalar tree_4_3_u05_r4_network.content_distribution 	client-16 	29
scalar tree_4_3_u05_r4_network.content_distribution 	client-17 	30
scalar tree_4_3_u05_r4_network.content_distribution 	client-18 	31
scalar tree_4_3_u05_r4_network.content_distribution 	client-19 	32
scalar tree_4_3_u05_r4_network.content_distribution 	client-20 	33
scalar tree_4_3_u05_r4_network.content_distribution 	client-21 	34
scalar tree_4_3_u05_r4_network.content_distribution 	client-22 	35
scalar tree_4_3_u05_r4_network.content_distribution 	client-23 	36
scalar tree_4_3_u05_r4_network.content_distribution 	client-24 	37
scalar tree_4_3_u05_r4_network.content_distribution 	client-25 	38
scalar tree_4_3_u05_r4_network.content_distribution 	client-26 	39
scalar tree_4_3_u05_r4_network.content_distribution 	repo-0_card 	100000
scalar tree_4_3_u05_r4_network.content_distribution 	repo-0_price 	0
scalar tree_4_3_u05_r4_network.statistics 	stabilization_time 	1847.3
scalar tree_4_3_u05_r4_network.statistics 	p_hit 	0.22973372109308
scalar tree_4_3_u05_r4_network.statistics 	interests 	25698.4
scalar tree_4_3_u05_r4_network.statistics 	data 	17585.775
scalar tree_4_3_u05_r4_network.statistics 	hdistance 	2.7231763618064
scalar tree_4_3_u05_r4_network.statistics 	avg_time 	0.004335535707
scalar tree_4_3_u05_r4_network.statistics 	downloads 	324500
scalar tree_4_3_u05_r4_network.statistics 	total_cost 	0
scalar tree_4_3_u05_r4_network.statistics 	total_replicas 	100000
scalar tree_4_3_u05_r4_network.statistics 	inner_hit 	0.4446594761171
scalar tree_4_3_u05_r4_network.node[0].core_layer 	interests[0] 	181566
scalar tree_4_3_u05_r4_network.node[0].core_layer 	repo_load[0] 	180208
scalar tree_4_3_u05_r4_network.node[0].core_layer 	data[0] 	0
scalar tree_4_3_u05_r4_network.node[0].core_layer 	repo_int[0] 	180208
scalar tree_4_3_u05_r4_network.node[0].content_store 	p_hit[0] 	0.0074793738915876
scalar tree_4_3_u05_r4_network.node[0].content_store 	hits[0] 	1358
scalar tree_4_3_u05_r4_network.node[0].content_store 	misses[0] 	180208
scalar tree_4_3_u05_r4_network.node[0].content_store 	decision_yes[0] 	1839
scalar tree_4_3_u05_r4_network.node[0].content_store 	decision_no[0] 	178369
scalar tree_4_3_u05_r4_network.node[0].content_store 	decision_ratio[0] 	0.010204874367398
scalar tree_4_3_u05_r4_network.node[1].core_layer 	interests[1] 	64377
scalar tree_4_3_u05_r4_network.node[1].core_layer 	data[1] 	63289
scalar tree_4_3_u05_r4_network.node[1].content_store 	p_hit[1] 	0.016900445811392
scalar tree_4_3_u05_r4_network.node[1].content_store 	hits[1] 	1088
scalar tree_4_3_u05_r4_network.node[1].content_store 	misses[1] 	63289
scalar tree_4_3_u05_r4_network.node[1].content_store 	decision_yes[1] 	640
scalar tree_4_3_u05_r4_network.node[1].content_store 	decision_no[1] 	62649
scalar tree_4_3_u05_r4_network.node[1].content_store 	decision_ratio[1] 	0.010112341797153
scalar tree_4_3_u05_r4_network.node[2].core_layer 	interests[2] 	104052
scalar tree_4_3_u05_r4_network.node[2].core_layer 	data[2] 	101163
scalar tree_4_3_u05_r4_network.node[2].content_store 	p_hit[2] 	0.027745742513359
scalar tree_4_3_u05_r4_network.node[2].content_store 	hits[2] 	2887
scalar tree_4_3_u05_r4_network.node[2].content_store 	misses[2] 	101165
scalar tree_4_3_u05_r4_network.node[2].content_store 	decision_yes[2] 	1031
scalar tree_4_3_u05_r4_network.node[2].content_store 	decision_no[2] 	100132
scalar tree_4_3_u05_r4_network.node[2].content_store 	decision_ratio[2] 	0.010191473167067
scalar tree_4_3_u05_r4_network.node[3].core_layer 	interests[3] 	44041
scalar tree_4_3_u05_r4_network.node[3].core_layer 	data[3] 	41395
scalar tree_4_3_u05_r4_network.node[3].content_store 	p_hit[3] 	0.060034967416725
scalar tree_4_3_u05_r4_network.node[3].content_store 	hits[3] 	2644
scalar tree_4_3_u05_r4_network.node[3].content_store 	misses[3] 	41397
scalar tree_4_3_u05_r4_network.node[3].content_store 	decision_yes[3] 	415
scalar tree_4_3_u05_r4_network.node[3].content_store 	decision_no[3] 	40980
scalar tree_4_3_u05_r4_network.node[3].content_store 	decision_ratio[3] 	0.010025365382293
scalar tree_4_3_u05_r4_network.node[4].core_layer 	interests[4] 	34930
scalar tree_4_3_u05_r4_network.node[4].core_layer 	data[4] 	32463
scalar tree_4_3_u05_r4_network.node[4].content_store 	p_hit[4] 	0.070598339536215
scalar tree_4_3_u05_r4_network.node[4].content_store 	hits[4] 	2466
scalar tree_4_3_u05_r4_network.node[4].content_store 	misses[4] 	32464
scalar tree_4_3_u05_r4_network.node[4].content_store 	decision_yes[4] 	335
scalar tree_4_3_u05_r4_network.node[4].content_store 	decision_no[4] 	32128
scalar tree_4_3_u05_r4_network.node[4].content_store 	decision_ratio[4] 	0.010319440593907
scalar tree_4_3_u05_r4_network.node[5].core_layer 	interests[5] 	43048
scalar tree_4_3_u05_r4_network.node[5].core_layer 	data[5] 	38770
scalar tree_4_3_u05_r4_network.node[5].content_store 	p_hit[5] 	0.099354209254785
scalar tree_4_3_u05_r4_network.node[5].content_store 	hits[5] 	4277
scalar tree_4_3_u05_r4_network.node[5].content_store 	misses[5] 	38771
scalar tree_4_3_u05_r4_network.node[5].content_store 	decision_yes[5] 	399
scalar tree_4_3_u05_r4_network.node[5].content_store 	decision_no[5] 	38371
scalar tree_4_3_u05_r4_network.node[5].content_store 	decision_ratio[5] 	0.010291462470983
scalar tree_4_3_u05_r4_network.node[6].core_layer 	interests[6] 	14872
scalar tree_4_3_u05_r4_network.node[6].core_layer 	data[6] 	11407
scalar tree_4_3_u05_r4_network.node[6].content_store 	p_hit[6] 	0.23292092522862
scalar tree_4_3_u05_r4_network.node[6].content_store 	hits[6] 	3464
scalar tree_4_3_u05_r4_network.node[6].content_store 	misses[6] 	11408
scalar tree_4_3_u05_r4_network.node[6].content_store 	decision_yes[6] 	123
scalar tree_4_3_u05_r4_network.node[6].content_store 	decision_no[6] 	11284
scalar tree_4_3_u05_r4_network.node[6].content_store 	decision_ratio[6] 	0.010782852634347
scalar tree_4_3_u05_r4_network.node[7].core_layer 	interests[7] 	38173
scalar tree_4_3_u05_r4_network.node[7].core_layer 	data[7] 	35159
scalar tree_4_3_u05_r4_network.node[7].content_store 	p_hit[7] 	0.07893013386425
scalar tree_4_3_u05_r4_network.node[7].content_store 	hits[7] 	3013
scalar tree_4_3_u05_r4_network.node[7].content_store 	misses[7] 	35160
scalar tree_4_3_u05_r4_network.node[7].content_store 	decision_yes[7] 	318
scalar tree_4_3_u05_r4_network.node[7].content_store 	decision_no[7] 	34841
scalar tree_4_3_u05_r4_network.node[7].content_store 	decision_ratio[7] 	0.0090446258426008
scalar tree_4_3_u05_r4_network.node[8].core_layer 	interests[8] 	30034
scalar tree_4_3_u05_r4_network.node[8].core_layer 	data[8] 	26968
scalar tree_4_3_u05_r4_network.node[8].content_store 	p_hit[8] 	0.10208430445495
scalar tree_4_3_u05_r4_network.node[8].content_store 	hits[8] 	3066
scalar tree_4_3_u05_r4_network.node[8].content_store 	misses[8] 	26968
scalar tree_4_3_u05_r4_network.node[8].content_store 	decision_yes[8] 	224
scalar tree_4_3_u05_r4_network.node[8].content_store 	decision_no[8] 	26744
scalar tree_4_3_u05_r4_network.node[8].content_store 	decision_ratio[8] 	0.0083061406110946
scalar tree_4_3_u05_r4_network.node[9].core_layer 	interests[9] 	22769
scalar tree_4_3_u05_r4_network.node[9].core_layer 	data[9] 	19158
scalar tree_4_3_u05_r4_network.node[9].content_store 	p_hit[9] 	0.15854890421187
scalar tree_4_3_u05_r4_network.node[9].content_store 	hits[9] 	3610
scalar tree_4_3_u05_r4_network.node[9].content_store 	misses[9] 	19159
scalar tree_4_3_u05_r4_network.node[9].content_store 	decision_yes[9] 	222
scalar tree_4_3_u05_r4_network.node[9].content_store 	decision_no[9] 	18936
scalar tree_4_3_u05_r4_network.node[9].content_store 	decision_ratio[9] 	0.011587848418415
scalar tree_4_3_u05_r4_network.node[10].core_layer 	interests[10] 	30016
scalar tree_4_3_u05_r4_network.node[10].core_layer 	data[10] 	27152
scalar tree_4_3_u05_r4_network.node[10].content_store 	p_hit[10] 	0.095415778251599
scalar tree_4_3_u05_r4_network.node[10].content_store 	hits[10] 	2864
scalar tree_4_3_u05_r4_network.node[10].content_store 	misses[10] 	27152
scalar tree_4_3_u05_r4_network.node[10].content_store 	decision_yes[10] 	270
scalar tree_4_3_u05_r4_network.node[10].content_store 	decision_no[10] 	26882
scalar tree_4_3_u05_r4_network.node[10].content_store 	decision_ratio[10] 	0.0099440188568061
scalar tree_4_3_u05_r4_network.node[11].core_layer 	interests[11] 	40323
scalar tree_4_3_u05_r4_network.node[11].core_layer 	data[11] 	36246
scalar tree_4_3_u05_r4_network.node[11].content_store 	p_hit[11] 	0.1011085484711
scalar tree_4_3_u05_r4_network.node[11].content_store 	hits[11] 	4077
scalar tree_4_3_u05_r4_network.node[11].content_store 	misses[11] 	36246
scalar tree_4_3_u05_r4_network.node[11].content_store 	decision_yes[11] 	337
scalar tree_4_3_u05_r4_network.node[11].content_store 	decision_no[11] 	35909
scalar tree_4_3_u05_r4_network.node[11].content_store 	decision_ratio[11] 	0.0092975776637422
scalar tree_4_3_u05_r4_network.node[12].core_layer 	interests[12] 	21814
scalar tree_4_3_u05_r4_network.node[12].core_layer 	data[12] 	18563
scalar tree_4_3_u05_r4_network.node[12].content_store 	p_hit[12] 	0.14898688915375
scalar tree_4_3_u05_r4_network.node[12].content_store 	hits[12] 	3250
scalar tree_4_3_u05_r4_network.node[12].content_store 	misses[12] 	18564
scalar tree_4_3_u05_r4_network.node[12].content_store 	decision_yes[12] 	192
scalar tree_4_3_u05_r4_network.node[12].content_store 	decision_no[12] 	18371
scalar tree_4_3_u05_r4_network.node[12].content_store 	decision_ratio[12] 	0.010343155739913
scalar tree_4_3_u05_r4_network.node[13].core_layer 	interests[13] 	12745
scalar tree_4_3_u05_r4_network.node[13].core_layer 	data[13] 	9286
scalar tree_4_3_u05_r4_network.node[13].content_store 	p_hit[13] 	0.27140054923499
scalar tree_4_3_u05_r4_network.node[13].content_store 	hits[13] 	3459
scalar tree_4_3_u05_r4_network.node[13].content_store 	misses[13] 	9286
scalar tree_4_3_u05_r4_network.node[13].content_store 	decision_yes[13] 	95
scalar tree_4_3_u05_r4_network.node[13].content_store 	decision_no[13] 	9191
scalar tree_4_3_u05_r4_network.node[13].content_store 	decision_ratio[13] 	0.010230454447555
scalar tree_4_3_u05_r4_network.node[14].core_layer 	interests[14] 	14201
scalar tree_4_3_u05_r4_network.node[14].core_layer 	data[14] 	9484
scalar tree_4_3_u05_r4_network.node[14].content_store 	p_hit[14] 	0.33208928948666
scalar tree_4_3_u05_r4_network.node[14].content_store 	hits[14] 	4716
scalar tree_4_3_u05_r4_network.node[14].content_store 	misses[14] 	9485
scalar tree_4_3_u05_r4_network.node[14].content_store 	decision_yes[14] 	96
scalar tree_4_3_u05_r4_network.node[14].content_store 	decision_no[14] 	9388
scalar tree_4_3_u05_r4_network.node[14].content_store 	decision_ratio[14] 	0.010122311261071
scalar tree_4_3_u05_r4_network.node[15].core_layer 	interests[15] 	12539
scalar tree_4_3_u05_r4_network.node[15].core_layer 	data[15] 	9185
scalar tree_4_3_u05_r4_network.node[15].content_store 	p_hit[15] 	0.26748544541032
scalar tree_4_3_u05_r4_network.node[15].content_store 	hits[15] 	3354
scalar tree_4_3_u05_r4_network.node[15].content_store 	misses[15] 	9185
scalar tree_4_3_u05_r4_network.node[15].content_store 	decision_yes[15] 	113
scalar tree_4_3_u05_r4_network.node[15].content_store 	decision_no[15] 	9072
scalar tree_4_3_u05_r4_network.node[15].content_store 	decision_ratio[15] 	0.012302667392488
scalar tree_4_3_u05_r4_network.node[16].core_layer 	interests[16] 	13346
scalar tree_4_3_u05_r4_network.node[16].core_layer 	data[16] 	9292
scalar tree_4_3_u05_r4_network.node[16].content_store 	p_hit[16] 	0.30376142664469
scalar tree_4_3_u05_r4_network.node[16].content_store 	hits[16] 	4054
scalar tree_4_3_u05_r4_network.node[16].content_store 	misses[16] 	9292
scalar tree_4_3_u05_r4_network.node[16].content_store 	decision_yes[16] 	86
scalar tree_4_3_u05_r4_network.node[16].content_store 	decision_no[16] 	9206
scalar tree_4_3_u05_r4_network.node[16].content_store 	decision_ratio[16] 	0.0092552733534223
scalar tree_4_3_u05_r4_network.node[17].core_layer 	interests[17] 	13531
scalar tree_4_3_u05_r4_network.node[17].core_layer 	data[17] 	9460
scalar tree_4_3_u05_r4_network.node[17].content_store 	p_hit[17] 	0.30079077673491
scalar tree_4_3_u05_r4_network.node[17].content_store 	hits[17] 	4070
scalar tree_4_3_u05_r4_network.node[17].content_store 	misses[17] 	9461
scalar tree_4_3_u05_r4_network.node[17].content_store 	decision_yes[17] 	80
scalar tree_4_3_u05_r4_network.node[17].content_store 	decision_no[17] 	9380
scalar tree_4_3_u05_r4_network.node[17].content_store 	decision_ratio[17] 	0.0084566596194503
scalar tree_4_3_u05_r4_network.node[18].core_layer 	interests[18] 	13507
scalar tree_4_3_u05_r4_network.node[18].core_layer 	data[18] 	9364
scalar tree_4_3_u05_r4_network.node[18].content_store 	p_hit[18] 	0.3067298437847
scalar tree_4_3_u05_r4_network.node[18].content_store 	hits[18] 	4143
scalar tree_4_3_u05_r4_network.node[18].content_store 	misses[18] 	9364
scalar tree_4_3_u05_r4_network.node[18].content_store 	decision_yes[18] 	104
scalar tree_4_3_u05_r4_network.node[18].content_store 	decision_no[18] 	9260
scalar tree_4_3_u05_r4_network.node[18].content_store 	decision_ratio[18] 	0.011106364801367
scalar tree_4_3_u05_r4_network.node[19].core_layer 	interests[19] 	13559
scalar tree_4_3_u05_r4_network.node[19].core_layer 	data[19] 	9447
scalar tree_4_3_u05_r4_network.node[19].content_store 	p_hit[19] 	0.30326720259606
scalar tree_4_3_u05_r4_network.node[19].content_store 	hits[19] 	4112
scalar tree_4_3_u05_r4_network.node[19].content_store 	misses[19] 	9447
scalar tree_4_3_u05_r4_network.node[19].content_store 	decision_yes[19] 	96
scalar tree_4_3_u05_r4_network.node[19].content_store 	decision_no[19] 	9351
scalar tree_4_3_u05_r4_network.node[19].content_store 	decision_ratio[19] 	0.010161956176564
scalar tree_4_3_u05_r4_network.node[20].core_layer 	interests[20] 	14007
scalar tree_4_3_u05_r4_network.node[20].core_layer 	data[20] 	9304
scalar tree_4_3_u05_r4_network.node[20].content_store 	p_hit[20] 	0.33576069108303
scalar tree_4_3_u05_r4_network.node[20].content_store 	hits[20] 	4703
scalar tree_4_3_u05_r4_network.node[20].content_store 	misses[20] 	9304
scalar tree_4_3_u05_r4_network.node[20].content_store 	decision_yes[20] 	76
scalar tree_4_3_u05_r4_network.node[20].content_store 	decision_no[20] 	9228
scalar tree_4_3_u05_r4_network.node[20].content_store 	decision_ratio[20] 	0.0081685296646604
scalar tree_4_3_u05_r4_network.node[21].core_layer 	interests[21] 	12744
scalar tree_4_3_u05_r4_network.node[21].core_layer 	data[21] 	9344
scalar tree_4_3_u05_r4_network.node[21].content_store 	p_hit[21] 	0.26679221594476
scalar tree_4_3_u05_r4_network.node[21].content_store 	hits[21] 	3400
scalar tree_4_3_u05_r4_network.node[21].content_store 	misses[21] 	9344
scalar tree_4_3_u05_r4_network.node[21].content_store 	decision_yes[21] 	80
scalar tree_4_3_u05_r4_network.node[21].content_store 	decision_no[21] 	9264
scalar tree_4_3_u05_r4_network.node[21].content_store 	decision_ratio[21] 	0.0085616438356164
scalar tree_4_3_u05_r4_network.node[22].core_layer 	interests[22] 	13115
scalar tree_4_3_u05_r4_network.node[22].core_layer 	data[22] 	9537
scalar tree_4_3_u05_r4_network.node[22].content_store 	p_hit[22] 	0.2727411361037
scalar tree_4_3_u05_r4_network.node[22].content_store 	hits[22] 	3577
scalar tree_4_3_u05_r4_network.node[22].content_store 	misses[22] 	9538
scalar tree_4_3_u05_r4_network.node[22].content_store 	decision_yes[22] 	107
scalar tree_4_3_u05_r4_network.node[22].content_store 	decision_no[22] 	9430
scalar tree_4_3_u05_r4_network.node[22].content_store 	decision_ratio[22] 	0.011219461046451
scalar tree_4_3_u05_r4_network.node[23].core_layer 	interests[23] 	12894
scalar tree_4_3_u05_r4_network.node[23].core_layer 	data[23] 	9247
scalar tree_4_3_u05_r4_network.node[23].content_store 	p_hit[23] 	0.2828447339848
scalar tree_4_3_u05_r4_network.node[23].content_store 	hits[23] 	3647
scalar tree_4_3_u05_r4_network.node[23].content_store 	misses[23] 	9247
scalar tree_4_3_u05_r4_network.node[23].content_store 	decision_yes[23] 	105
scalar tree_4_3_u05_r4_network.node[23].content_store 	decision_no[23] 	9142
scalar tree_4_3_u05_r4_network.node[23].content_store 	decision_ratio[23] 	0.011355034065102
scalar tree_4_3_u05_r4_network.node[24].core_layer 	interests[24] 	13670
scalar tree_4_3_u05_r4_network.node[24].core_layer 	data[24] 	9408
scalar tree_4_3_u05_r4_network.node[24].content_store 	p_hit[24] 	0.3117776152158
scalar tree_4_3_u05_r4_network.node[24].content_store 	hits[24] 	4262
scalar tree_4_3_u05_r4_network.node[24].content_store 	misses[24] 	9408
scalar tree_4_3_u05_r4_network.node[24].content_store 	decision_yes[24] 	98
scalar tree_4_3_u05_r4_network.node[24].content_store 	decision_no[24] 	9310
scalar tree_4_3_u05_r4_network.node[24].content_store 	decision_ratio[24] 	0.010416666666667
scalar tree_4_3_u05_r4_network.node[25].core_layer 	interests[25] 	13800
scalar tree_4_3_u05_r4_network.node[25].core_layer 	data[25] 	9153
scalar tree_4_3_u05_r4_network.node[25].content_store 	p_hit[25] 	0.33673913043478
scalar tree_4_3_u05_r4_network.node[25].content_store 	hits[25] 	4647
scalar tree_4_3_u05_r4_network.node[25].content_store 	misses[25] 	9153
scalar tree_4_3_u05_r4_network.node[25].content_store 	decision_yes[25] 	86
scalar tree_4_3_u05_r4_network.node[25].content_store 	decision_no[25] 	9067
scalar tree_4_3_u05_r4_network.node[25].content_store 	decision_ratio[25] 	0.009395826504971
scalar tree_4_3_u05_r4_network.node[26].core_layer 	interests[26] 	13067
scalar tree_4_3_u05_r4_network.node[26].core_layer 	data[26] 	9286
scalar tree_4_3_u05_r4_network.node[26].content_store 	p_hit[26] 	0.28935486339634
scalar tree_4_3_u05_r4_network.node[26].content_store 	hits[26] 	3781
scalar tree_4_3_u05_r4_network.node[26].content_store 	misses[26] 	9286
scalar tree_4_3_u05_r4_network.node[26].content_store 	decision_yes[26] 	95
scalar tree_4_3_u05_r4_network.node[26].content_store 	decision_no[26] 	9191
scalar tree_4_3_u05_r4_network.node[26].content_store 	decision_ratio[26] 	0.010230454447555
scalar tree_4_3_u05_r4_network.node[27].core_layer 	interests[27] 	12872
scalar tree_4_3_u05_r4_network.node[27].core_layer 	data[27] 	9199
scalar tree_4_3_u05_r4_network.node[27].content_store 	p_hit[27] 	0.2852703542573
scalar tree_4_3_u05_r4_network.node[27].content_store 	hits[27] 	3672
scalar tree_4_3_u05_r4_network.node[27].content_store 	misses[27] 	9200
scalar tree_4_3_u05_r4_network.node[27].content_store 	decision_yes[27] 	97
scalar tree_4_3_u05_r4_network.node[27].content_store 	decision_no[27] 	9102
scalar tree_4_3_u05_r4_network.node[27].content_store 	decision_ratio[27] 	0.010544624415697
scalar tree_4_3_u05_r4_network.node[28].core_layer 	interests[28] 	12810
scalar tree_4_3_u05_r4_network.node[28].core_layer 	data[28] 	9239
scalar tree_4_3_u05_r4_network.node[28].content_store 	p_hit[28] 	0.27876658860265
scalar tree_4_3_u05_r4_network.node[28].content_store 	hits[28] 	3571
scalar tree_4_3_u05_r4_network.node[28].content_store 	misses[28] 	9239
scalar tree_4_3_u05_r4_network.node[28].content_store 	decision_yes[28] 	92
scalar tree_4_3_u05_r4_network.node[28].content_store 	decision_no[28] 	9147
scalar tree_4_3_u05_r4_network.node[28].content_store 	decision_ratio[28] 	0.0099577876393549
scalar tree_4_3_u05_r4_network.node[29].core_layer 	interests[29] 	13332
scalar tree_4_3_u05_r4_network.node[29].core_layer 	data[29] 	9069
scalar tree_4_3_u05_r4_network.node[29].content_store 	p_hit[29] 	0.31968196819682
scalar tree_4_3_u05_r4_network.node[29].content_store 	hits[29] 	4262
scalar tree_4_3_u05_r4_network.node[29].content_store 	misses[29] 	9070
scalar tree_4_3_u05_r4_network.node[29].content_store 	decision_yes[29] 	84
scalar tree_4_3_u05_r4_network.node[29].content_store 	decision_no[29] 	8985
scalar tree_4_3_u05_r4_network.node[29].content_store 	decision_ratio[29] 	0.0092623221964935
scalar tree_4_3_u05_r4_network.node[30].core_layer 	interests[30] 	13121
scalar tree_4_3_u05_r4_network.node[30].core_layer 	data[30] 	9513
scalar tree_4_3_u05_r4_network.node[30].content_store 	p_hit[30] 	0.27497904123161
scalar tree_4_3_u05_r4_network.node[30].content_store 	hits[30] 	3608
scalar tree_4_3_u05_r4_network.node[30].content_store 	misses[30] 	9513
scalar tree_4_3_u05_r4_network.node[30].content_store 	decision_yes[30] 	93
scalar tree_4_3_u05_r4_network.node[30].content_store 	decision_no[30] 	9420
scalar tree_4_3_u05_r4_network.node[30].content_store 	decision_ratio[30] 	0.0097760958688111
scalar tree_4_3_u05_r4_network.node[31].core_layer 	interests[31] 	12751
scalar tree_4_3_u05_r4_network.node[31].core_layer 	data[31] 	9285
scalar tree_4_3_u05_r4_network.node[31].content_store 	p_hit[31] 	0.27182181789664
scalar tree_4_3_u05_r4_network.node[31].content_store 	hits[31] 	3466
scalar tree_4_3_u05_r4_network.node[31].content_store 	misses[31] 	9285
scalar tree_4_3_u05_r4_network.node[31].content_store 	decision_yes[31] 	99
scalar tree_4_3_u05_r4_network.node[31].content_store 	decision_no[31] 	9186
scalar tree_4_3_u05_r4_network.node[31].content_store 	decision_ratio[31] 	0.010662358642973
scalar tree_4_3_u05_r4_network.node[32].core_layer 	interests[32] 	12662
scalar tree_4_3_u05_r4_network.node[32].core_layer 	data[32] 	9425
scalar tree_4_3_u05_r4_network.node[32].content_store 	p_hit[32] 	0.25564681724846
scalar tree_4_3_u05_r4_network.node[32].content_store 	hits[32] 	3237
scalar tree_4_3_u05_r4_network.node[32].content_store 	misses[32] 	9425
scalar tree_4_3_u05_r4_network.node[32].content_store 	decision_yes[32] 	93
scalar tree_4_3_u05_r4_network.node[32].content_store 	decision_no[32] 	9332
scalar tree_4_3_u05_r4_network.node[32].content_store 	decision_ratio[32] 	0.009867374005305
scalar tree_4_3_u05_r4_network.node[33].core_layer 	interests[33] 	13497
scalar tree_4_3_u05_r4_network.node[33].core_layer 	data[33] 	9263
scalar tree_4_3_u05_r4_network.node[33].content_store 	p_hit[33] 	0.31369934059421
scalar tree_4_3_u05_r4_network.node[33].content_store 	hits[33] 	4234
scalar tree_4_3_u05_r4_network.node[33].content_store 	misses[33] 	9263
scalar tree_4_3_u05_r4_network.node[33].content_store 	decision_yes[33] 	85
scalar tree_4_3_u05_r4_network.node[33].content_store 	decision_no[33] 	9178
scalar tree_4_3_u05_r4_network.node[33].content_store 	decision_ratio[33] 	0.0091762927777178
scalar tree_4_3_u05_r4_network.node[34].core_layer 	interests[34] 	14042
scalar tree_4_3_u05_r4_network.node[34].core_layer 	data[34] 	9461
scalar tree_4_3_u05_r4_network.node[34].content_store 	p_hit[34] 	0.326306793904
scalar tree_4_3_u05_r4_network.node[34].content_store 	hits[34] 	4582
scalar tree_4_3_u05_r4_network.node[34].content_store 	misses[34] 	9460
scalar tree_4_3_u05_r4_network.node[34].content_store 	decision_yes[34] 	102
scalar tree_4_3_u05_r4_network.node[34].content_store 	decision_no[34] 	9359
scalar tree_4_3_u05_r4_network.node[34].content_store 	decision_ratio[34] 	0.010781101363492
scalar tree_4_3_u05_r4_network.node[35].core_layer 	interests[35] 	13378
scalar tree_4_3_u05_r4_network.node[35].core_layer 	data[35] 	9157
scalar tree_4_3_u05_r4_network.node[35].content_store 	p_hit[35] 	0.31544326506204
scalar tree_4_3_u05_r4_network.node[35].content_store 	hits[35] 	4220
scalar tree_4_3_u05_r4_network.node[35].content_store 	misses[35] 	9158
scalar tree_4_3_u05_r4_network.node[35].content_store 	decision_yes[35] 	92
scalar tree_4_3_u05_r4_network.node[35].content_store 	decision_no[35] 	9065
scalar tree_4_3_u05_r4_network.node[35].content_store 	decision_ratio[35] 	0.010046958610899
scalar tree_4_3_u05_r4_network.node[36].core_layer 	interests[36] 	13310
scalar tree_4_3_u05_r4_network.node[36].core_layer 	data[36] 	9475
scalar tree_4_3_u05_r4_network.node[36].content_store 	p_hit[36] 	0.28812922614576
scalar tree_4_3_u05_r4_network.node[36].content_store 	hits[36] 	3835
scalar tree_4_3_u05_r4_network.node[36].content_store 	misses[36] 	9475
scalar tree_4_3_u05_r4_network.node[36].content_store 	decision_yes[36] 	103
scalar tree_4_3_u05_r4_network.node[36].content_store 	decision_no[36] 	9372
scalar tree_4_3_u05_r4_network.node[36].content_store 	decision_ratio[36] 	0.010870712401055
scalar tree_4_3_u05_r4_network.node[37].core_layer 	interests[37] 	12687
scalar tree_4_3_u05_r4_network.node[37].core_layer 	data[37] 	9183
scalar tree_4_3_u05_r4_network.node[37].content_store 	p_hit[37] 	0.27618822416647
scalar tree_4_3_u05_r4_network.node[37].content_store 	hits[37] 	3504
scalar tree_4_3_u05_r4_network.node[37].content_store 	misses[37] 	9183
scalar tree_4_3_u05_r4_network.node[37].content_store 	decision_yes[37] 	99
scalar tree_4_3_u05_r4_network.node[37].content_store 	decision_no[37] 	9084
scalar tree_4_3_u05_r4_network.node[37].content_store 	decision_ratio[37] 	0.01078079059131
scalar tree_4_3_u05_r4_network.node[38].core_layer 	interests[38] 	14121
scalar tree_4_3_u05_r4_network.node[38].core_layer 	data[38] 	9328
scalar tree_4_3_u05_r4_network.node[38].content_store 	p_hit[38] 	0.33942355357269
scalar tree_4_3_u05_r4_network.node[38].content_store 	hits[38] 	4793
scalar tree_4_3_u05_r4_network.node[38].content_store 	misses[38] 	9328
scalar tree_4_3_u05_r4_network.node[38].content_store 	decision_yes[38] 	114
scalar tree_4_3_u05_r4_network.node[38].content_store 	decision_no[38] 	9214
scalar tree_4_3_u05_r4_network.node[38].content_store 	decision_ratio[38] 	0.012221269296741
scalar tree_4_3_u05_r4_network.node[39].core_layer 	interests[39] 	12613
scalar tree_4_3_u05_r4_network.node[39].core_layer 	data[39] 	9304
scalar tree_4_3_u05_r4_network.node[39].content_store 	p_hit[39] 	0.26234837072861
scalar tree_4_3_u05_r4_network.node[39].content_store 	hits[39] 	3309
scalar tree_4_3_u05_r4_network.node[39].content_store 	misses[39] 	9304
scalar tree_4_3_u05_r4_network.node[39].content_store 	decision_yes[39] 	77
scalar tree_4_3_u05_r4_network.node[39].content_store 	decision_no[39] 	9227
scalar tree_4_3_u05_r4_network.node[39].content_store 	decision_ratio[39] 	0.0082760103181427
scalar tree_4_3_u05_r4_network.client[13] 	hdistance[13] 	2.7662682602922
scalar tree_4_3_u05_r4_network.client[13] 	downloads[13] 	12048
scalar tree_4_3_u05_r4_network.client[13] 	avg_time[13] 	0.004335654408
scalar tree_4_3_u05_r4_network.client[14] 	hdistance[14] 	2.6646019160885
scalar tree_4_3_u05_r4_network.client[14] 	downloads[14] 	12108
scalar tree_4_3_u05_r4_network.client[14] 	avg_time[14] 	0.004255817048
scalar tree_4_3_u05_r4_network.client[15] 	hdistance[15] 	2.7719400499584
scalar tree_4_3_u05_r4_network.client[15] 	downloads[15] 	12010
scalar tree_4_3_u05_r4_network.client[15] 	avg_time[15] 	0.004336383349
scalar tree_4_3_u05_r4_network.client[16] 	hdistance[16] 	2.7474949899799
scalar tree_4_3_u05_r4_network.client[16] 	downloads[16] 	11976
scalar tree_4_3_u05_r4_network.client[16] 	avg_time[16] 	0.004400798607
scalar tree_4_3_u05_r4_network.client[17] 	hdistance[17] 	2.7345390898483
scalar tree_4_3_u05_r4_network.client[17] 	downloads[17] 	11998
scalar tree_4_3_u05_r4_network.client[17] 	avg_time[17] 	0.004395476032
scalar tree_4_3_u05_r4_network.client[18] 	hdistance[18] 	2.7263289036545
scalar tree_4_3_u05_r4_network.client[18] 	downloads[18] 	12040
scalar tree_4_3_u05_r4_network.client[18] 	avg_time[18] 	0.004366245885
scalar tree_4_3_u05_r4_network.client[19] 	hdistance[19] 	2.6900680718445
scalar tree_4_3_u05_r4_network.client[19] 	downloads[19] 	12193
scalar tree_4_3_u05_r4_network.client[19] 	avg_time[19] 	0.004268875533
scalar tree_4_3_u05_r4_network.client[20] 	hdistance[20] 	2.6331852100277
scalar tree_4_3_u05_r4_network.client[20] 	downloads[20] 	11927
scalar tree_4_3_u05_r4_network.client[20] 	avg_time[20] 	0.004225535723
scalar tree_4_3_u05_r4_network.client[21] 	hdistance[21] 	2.7525721455458
scalar tree_4_3_u05_r4_network.client[21] 	downloads[21] 	11955
scalar tree_4_3_u05_r4_network.client[21] 	avg_time[21] 	0.00441438428
scalar tree_4_3_u05_r4_network.client[22] 	hdistance[22] 	2.7927712827268
scalar tree_4_3_u05_r4_network.client[22] 	downloads[22] 	12146
scalar tree_4_3_u05_r4_network.client[22] 	avg_time[22] 	0.004473062854
scalar tree_4_3_u05_r4_network.client[23] 	hdistance[23] 	2.7614793788612
scalar tree_4_3_u05_r4_network.client[23] 	downloads[23] 	11978
scalar tree_4_3_u05_r4_network.client[23] 	avg_time[23] 	0.004412252806
scalar tree_4_3_u05_r4_network.client[24] 	hdistance[24] 	2.695842994369
scalar tree_4_3_u05_r4_network.client[24] 	downloads[24] 	12076
scalar tree_4_3_u05_r4_network.client[24] 	avg_time[24] 	0.004276274641
scalar tree_4_3_u05_r4_network.client[25] 	hdistance[25] 	2.6565867513157
scalar tree_4_3_u05_r4_network.client[25] 	downloads[25] 	11971
scalar tree_4_3_u05_r4_network.client[25] 	avg_time[25] 	0.004205153589
scalar tree_4_3_u05_r4_network.client[26] 	hdistance[26] 	2.7485079575597
scalar tree_4_3_u05_r4_network.client[26] 	downloads[26] 	12064
scalar tree_4_3_u05_r4_network.client[26] 	avg_time[26] 	0.004376986373
scalar tree_4_3_u05_r4_network.client[27] 	hdistance[27] 	2.7518120469883
scalar tree_4_3_u05_r4_network.client[27] 	downloads[27] 	12003
scalar tree_4_3_u05_r4_network.client[27] 	avg_time[27] 	0.004386164368
scalar tree_4_3_u05_r4_network.client[28] 	hdistance[28] 	2.7464800607031
scalar tree_4_3_u05_r4_network.client[28] 	downloads[28] 	11861
scalar tree_4_3_u05_r4_network.client[28] 	avg_time[28] 	0.004395657316
scalar tree_4_3_u05_r4_network.client[29] 	hdistance[29] 	2.656005386752
scalar tree_4_3_u05_r4_network.client[29] 	downloads[29] 	11881
scalar tree_4_3_u05_r4_network.client[29] 	avg_time[29] 	0.004201198072
scalar tree_4_3_u05_r4_network.client[30] 	hdistance[30] 	2.7665984445354
scalar tree_4_3_u05_r4_network.client[30] 	downloads[30] 	12215
scalar tree_4_3_u05_r4_network.client[30] 	avg_time[30] 	0.004420791061
scalar tree_4_3_u05_r4_network.client[31] 	hdistance[31] 	2.7403615949806
scalar tree_4_3_u05_r4_network.client[31] 	downloads[31] 	12113
scalar tree_4_3_u05_r4_network.client[31] 	avg_time[31] 	0.004332532245
scalar tree_4_3_u05_r4_network.client[32] 	hdistance[32] 	2.7836311530681
scalar tree_4_3_u05_r4_network.client[32] 	downloads[32] 	11864
scalar tree_4_3_u05_r4_network.client[32] 	avg_time[32] 	0.004416287454
scalar tree_4_3_u05_r4_network.client[33] 	hdistance[33] 	2.674954113132
scalar tree_4_3_u05_r4_network.client[33] 	downloads[33] 	11986
scalar tree_4_3_u05_r4_network.client[33] 	avg_time[33] 	0.004188835709
scalar tree_4_3_u05_r4_network.client[34] 	hdistance[34] 	2.6655081098974
scalar tree_4_3_u05_r4_network.client[34] 	downloads[34] 	12084
scalar tree_4_3_u05_r4_network.client[34] 	avg_time[34] 	0.004274077282
scalar tree_4_3_u05_r4_network.client[35] 	hdistance[35] 	2.7080060170483
scalar tree_4_3_u05_r4_network.client[35] 	downloads[35] 	11966
scalar tree_4_3_u05_r4_network.client[35] 	avg_time[35] 	0.004357469897
scalar tree_4_3_u05_r4_network.client[36] 	hdistance[36] 	2.7754283326369
scalar tree_4_3_u05_r4_network.client[36] 	downloads[36] 	11965
scalar tree_4_3_u05_r4_network.client[36] 	avg_time[36] 	0.004468697352
scalar tree_4_3_u05_r4_network.client[37] 	hdistance[37] 	2.725503188934
scalar tree_4_3_u05_r4_network.client[37] 	downloads[37] 	12073
scalar tree_4_3_u05_r4_network.client[37] 	avg_time[37] 	0.004304343606
scalar tree_4_3_u05_r4_network.client[38] 	hdistance[38] 	2.6205673758865
scalar tree_4_3_u05_r4_network.client[38] 	downloads[38] 	12126
scalar tree_4_3_u05_r4_network.client[38] 	avg_time[38] 	0.004190826586
scalar tree_4_3_u05_r4_network.client[39] 	hdistance[39] 	2.7687189421376
scalar tree_4_3_u05_r4_network.client[39] 	downloads[39] 	11873
scalar tree_4_3_u05_r4_network.client[39] 	avg_time[39] 	0.004379682029
