version 2
run General-8-20160831-18:22:13-8710
attr a 0.9
attr cd tfc
attr configname General
attr cr lru
attr datetime 20160831-18:22:13
attr experiment General
attr fsize 1
attr inifile hw5115/scenario_Y/omnetp.ini
attr iterationvars "$name=tree_4_3, $un=00, $rep=3, $cd=tfc, $cr=lru, $fsize=1, $a=0.9, $sl=nrr, $ttl=1000, $variance=0.05"
attr iterationvars2 "$name=tree_4_3, $un=00, $rep=3, $cd=tfc, $cr=lru, $fsize=1, $a=0.9, $sl=nrr, $ttl=1000, $variance=0.05, $repetition=0"
attr measurement "$name=tree_4_3, $un=00, $rep=3, $cd=tfc, $cr=lru, $fsize=1, $a=0.9, $sl=nrr, $ttl=1000, $variance=0.05"
attr name tree_4_3
attr network networks.${name}_u${un}_r${rep}_network
attr processid 8710
attr rep 3
attr repetition 0
attr replication #0
attr resultdir results
attr runnumber 8
attr seedset 3
attr sl nrr
attr ttl 1000
attr un 00
attr variance 0.05

scalar . 	a 	0.9
scalar . 	fsize 	1
scalar . 	rep 	3
scalar . 	ttl 	1000
scalar . 	un 	00
scalar . 	variance 	0.05
scalar tree_4_3_u00_r3_network.content_distribution 	repo-0 	0
scalar tree_4_3_u00_r3_network.content_distribution 	client-0 	13
scalar tree_4_3_u00_r3_network.content_distribution 	client-1 	14
scalar tree_4_3_u00_r3_network.content_distribution 	client-2 	15
scalar tree_4_3_u00_r3_network.content_distribution 	client-3 	16
scalar tree_4_3_u00_r3_network.content_distribution 	client-4 	17
scalar tree_4_3_u00_r3_network.content_distribution 	client-5 	18
scalar tree_4_3_u00_r3_network.content_distribution 	client-6 	19
scalar tree_4_3_u00_r3_network.content_distribution 	client-7 	20
scalar tree_4_3_u00_r3_network.content_distribution 	client-8 	21
scalar tree_4_3_u00_r3_network.content_distribution 	client-9 	22
scalar tree_4_3_u00_r3_network.content_distribution 	client-10 	23
scalar tree_4_3_u00_r3_network.content_distribution 	client-11 	24
scalar tree_4_3_u00_r3_network.content_distribution 	client-12 	25
scalar tree_4_3_u00_r3_network.content_distribution 	client-13 	26
scalar tree_4_3_u00_r3_network.content_distribution 	client-14 	27
scalar tree_4_3_u00_r3_network.content_distribution 	client-15 	28
scalar tree_4_3_u00_r3_network.content_distribution 	client-16 	29
scalar tree_4_3_u00_r3_network.content_distribution 	client-17 	30
scalar tree_4_3_u00_r3_network.content_distribution 	client-18 	31
scalar tree_4_3_u00_r3_network.content_distribution 	client-19 	32
scalar tree_4_3_u00_r3_network.content_distribution 	client-20 	33
scalar tree_4_3_u00_r3_network.content_distribution 	client-21 	34
scalar tree_4_3_u00_r3_network.content_distribution 	client-22 	35
scalar tree_4_3_u00_r3_network.content_distribution 	client-23 	36
scalar tree_4_3_u00_r3_network.content_distribution 	client-24 	37
scalar tree_4_3_u00_r3_network.content_distribution 	client-25 	38
scalar tree_4_3_u00_r3_network.content_distribution 	client-26 	39
scalar tree_4_3_u00_r3_network.content_distribution 	repo-0_card 	100000
scalar tree_4_3_u00_r3_network.content_distribution 	repo-0_price 	0
scalar tree_4_3_u00_r3_network.statistics 	stabilization_time 	1760.8
scalar tree_4_3_u00_r3_network.statistics 	p_hit 	0.21545312985141
scalar tree_4_3_u00_r3_network.statistics 	interests 	24580.175
scalar tree_4_3_u00_r3_network.statistics 	data 	16503.65
scalar tree_4_3_u00_r3_network.statistics 	hdistance 	2.6638778655226
scalar tree_4_3_u00_r3_network.statistics 	avg_time 	0.004086774214
scalar tree_4_3_u00_r3_network.statistics 	downloads 	323074
scalar tree_4_3_u00_r3_network.statistics 	total_cost 	0
scalar tree_4_3_u00_r3_network.statistics 	total_replicas 	100000
scalar tree_4_3_u00_r3_network.statistics 	inner_hit 	0.37956938658016
scalar tree_4_3_u00_r3_network.node[0].core_layer 	interests[0] 	204645
scalar tree_4_3_u00_r3_network.node[0].core_layer 	repo_load[0] 	200445
scalar tree_4_3_u00_r3_network.node[0].core_layer 	data[0] 	0
scalar tree_4_3_u00_r3_network.node[0].core_layer 	repo_int[0] 	200445
scalar tree_4_3_u00_r3_network.node[0].content_store 	p_hit[0] 	0.020523345305285
scalar tree_4_3_u00_r3_network.node[0].content_store 	hits[0] 	4200
scalar tree_4_3_u00_r3_network.node[0].content_store 	misses[0] 	200445
scalar tree_4_3_u00_r3_network.node[0].content_store 	decision_yes[0] 	1185
scalar tree_4_3_u00_r3_network.node[0].content_store 	decision_no[0] 	199260
scalar tree_4_3_u00_r3_network.node[0].content_store 	decision_ratio[0] 	0.0059118461423333
scalar tree_4_3_u00_r3_network.node[1].core_layer 	interests[1] 	71643
scalar tree_4_3_u00_r3_network.node[1].core_layer 	data[1] 	69318
scalar tree_4_3_u00_r3_network.node[1].content_store 	p_hit[1] 	0.032438619264967
scalar tree_4_3_u00_r3_network.node[1].content_store 	hits[1] 	2324
scalar tree_4_3_u00_r3_network.node[1].content_store 	misses[1] 	69319
scalar tree_4_3_u00_r3_network.node[1].content_store 	decision_yes[1] 	75
scalar tree_4_3_u00_r3_network.node[1].content_store 	decision_no[1] 	69243
scalar tree_4_3_u00_r3_network.node[1].content_store 	decision_ratio[1] 	0.001081970051069
scalar tree_4_3_u00_r3_network.node[2].core_layer 	interests[2] 	71807
scalar tree_4_3_u00_r3_network.node[2].core_layer 	data[2] 	69518
scalar tree_4_3_u00_r3_network.node[2].content_store 	p_hit[2] 	0.031877115044494
scalar tree_4_3_u00_r3_network.node[2].content_store 	hits[2] 	2289
scalar tree_4_3_u00_r3_network.node[2].content_store 	misses[2] 	69518
scalar tree_4_3_u00_r3_network.node[2].content_store 	decision_yes[2] 	84
scalar tree_4_3_u00_r3_network.node[2].content_store 	decision_no[2] 	69434
scalar tree_4_3_u00_r3_network.node[2].content_store 	decision_ratio[2] 	0.0012083201473
scalar tree_4_3_u00_r3_network.node[3].core_layer 	interests[3] 	71623
scalar tree_4_3_u00_r3_network.node[3].core_layer 	data[3] 	69378
scalar tree_4_3_u00_r3_network.node[3].content_store 	p_hit[3] 	0.031344679781634
scalar tree_4_3_u00_r3_network.node[3].content_store 	hits[3] 	2245
scalar tree_4_3_u00_r3_network.node[3].content_store 	misses[3] 	69378
scalar tree_4_3_u00_r3_network.node[3].content_store 	decision_yes[3] 	73
scalar tree_4_3_u00_r3_network.node[3].content_store 	decision_no[3] 	69305
scalar tree_4_3_u00_r3_network.node[3].content_store 	decision_ratio[3] 	0.0010522067514198
scalar tree_4_3_u00_r3_network.node[4].core_layer 	interests[4] 	26147
scalar tree_4_3_u00_r3_network.node[4].core_layer 	data[4] 	24505
scalar tree_4_3_u00_r3_network.node[4].content_store 	p_hit[4] 	0.062760546142961
scalar tree_4_3_u00_r3_network.node[4].content_store 	hits[4] 	1641
scalar tree_4_3_u00_r3_network.node[4].content_store 	misses[4] 	24506
scalar tree_4_3_u00_r3_network.node[4].content_store 	decision_yes[4] 	63
scalar tree_4_3_u00_r3_network.node[4].content_store 	decision_no[4] 	24442
scalar tree_4_3_u00_r3_network.node[4].content_store 	decision_ratio[4] 	0.0025709038971638
scalar tree_4_3_u00_r3_network.node[5].core_layer 	interests[5] 	26046
scalar tree_4_3_u00_r3_network.node[5].core_layer 	data[5] 	24372
scalar tree_4_3_u00_r3_network.node[5].content_store 	p_hit[5] 	0.064309298932658
scalar tree_4_3_u00_r3_network.node[5].content_store 	hits[5] 	1675
scalar tree_4_3_u00_r3_network.node[5].content_store 	misses[5] 	24371
scalar tree_4_3_u00_r3_network.node[5].content_store 	decision_yes[5] 	65
scalar tree_4_3_u00_r3_network.node[5].content_store 	decision_no[5] 	24307
scalar tree_4_3_u00_r3_network.node[5].content_store 	decision_ratio[5] 	0.0026669949121943
scalar tree_4_3_u00_r3_network.node[6].core_layer 	interests[6] 	26185
scalar tree_4_3_u00_r3_network.node[6].core_layer 	data[6] 	24425
scalar tree_4_3_u00_r3_network.node[6].content_store 	p_hit[6] 	0.0671758640443
scalar tree_4_3_u00_r3_network.node[6].content_store 	hits[6] 	1759
scalar tree_4_3_u00_r3_network.node[6].content_store 	misses[6] 	24426
scalar tree_4_3_u00_r3_network.node[6].content_store 	decision_yes[6] 	62
scalar tree_4_3_u00_r3_network.node[6].content_store 	decision_no[6] 	24363
scalar tree_4_3_u00_r3_network.node[6].content_store 	decision_ratio[6] 	0.0025383828045036
scalar tree_4_3_u00_r3_network.node[7].core_layer 	interests[7] 	26201
scalar tree_4_3_u00_r3_network.node[7].core_layer 	data[7] 	24414
scalar tree_4_3_u00_r3_network.node[7].content_store 	p_hit[7] 	0.068203503683066
scalar tree_4_3_u00_r3_network.node[7].content_store 	hits[7] 	1787
scalar tree_4_3_u00_r3_network.node[7].content_store 	misses[7] 	24414
scalar tree_4_3_u00_r3_network.node[7].content_store 	decision_yes[7] 	70
scalar tree_4_3_u00_r3_network.node[7].content_store 	decision_no[7] 	24344
scalar tree_4_3_u00_r3_network.node[7].content_store 	decision_ratio[7] 	0.0028672073400508
scalar tree_4_3_u00_r3_network.node[8].core_layer 	interests[8] 	26056
scalar tree_4_3_u00_r3_network.node[8].core_layer 	data[8] 	24386
scalar tree_4_3_u00_r3_network.node[8].content_store 	p_hit[8] 	0.064131102241326
scalar tree_4_3_u00_r3_network.node[8].content_store 	hits[8] 	1671
scalar tree_4_3_u00_r3_network.node[8].content_store 	misses[8] 	24385
scalar tree_4_3_u00_r3_network.node[8].content_store 	decision_yes[8] 	62
scalar tree_4_3_u00_r3_network.node[8].content_store 	decision_no[8] 	24324
scalar tree_4_3_u00_r3_network.node[8].content_store 	decision_ratio[8] 	0.002542442384975
scalar tree_4_3_u00_r3_network.node[9].core_layer 	interests[9] 	26297
scalar tree_4_3_u00_r3_network.node[9].core_layer 	data[9] 	24560
scalar tree_4_3_u00_r3_network.node[9].content_store 	p_hit[9] 	0.066015134806252
scalar tree_4_3_u00_r3_network.node[9].content_store 	hits[9] 	1736
scalar tree_4_3_u00_r3_network.node[9].content_store 	misses[9] 	24561
scalar tree_4_3_u00_r3_network.node[9].content_store 	decision_yes[9] 	68
scalar tree_4_3_u00_r3_network.node[9].content_store 	decision_no[9] 	24492
scalar tree_4_3_u00_r3_network.node[9].content_store 	decision_ratio[9] 	0.0027687296416938
scalar tree_4_3_u00_r3_network.node[10].core_layer 	interests[10] 	26195
scalar tree_4_3_u00_r3_network.node[10].core_layer 	data[10] 	24454
scalar tree_4_3_u00_r3_network.node[10].content_store 	p_hit[10] 	0.06646306547051
scalar tree_4_3_u00_r3_network.node[10].content_store 	hits[10] 	1741
scalar tree_4_3_u00_r3_network.node[10].content_store 	misses[10] 	24454
scalar tree_4_3_u00_r3_network.node[10].content_store 	decision_yes[10] 	62
scalar tree_4_3_u00_r3_network.node[10].content_store 	decision_no[10] 	24392
scalar tree_4_3_u00_r3_network.node[10].content_store 	decision_ratio[10] 	0.0025353725361904
scalar tree_4_3_u00_r3_network.node[11].core_layer 	interests[11] 	26197
scalar tree_4_3_u00_r3_network.node[11].core_layer 	data[11] 	24471
scalar tree_4_3_u00_r3_network.node[11].content_store 	p_hit[11] 	0.065847234416155
scalar tree_4_3_u00_r3_network.node[11].content_store 	hits[11] 	1725
scalar tree_4_3_u00_r3_network.node[11].content_store 	misses[11] 	24472
scalar tree_4_3_u00_r3_network.node[11].content_store 	decision_yes[11] 	59
scalar tree_4_3_u00_r3_network.node[11].content_store 	decision_no[11] 	24412
scalar tree_4_3_u00_r3_network.node[11].content_store 	decision_ratio[11] 	0.002411017122308
scalar tree_4_3_u00_r3_network.node[12].core_layer 	interests[12] 	26144
scalar tree_4_3_u00_r3_network.node[12].core_layer 	data[12] 	24441
scalar tree_4_3_u00_r3_network.node[12].content_store 	p_hit[12] 	0.065177478580171
scalar tree_4_3_u00_r3_network.node[12].content_store 	hits[12] 	1704
scalar tree_4_3_u00_r3_network.node[12].content_store 	misses[12] 	24440
scalar tree_4_3_u00_r3_network.node[12].content_store 	decision_yes[12] 	60
scalar tree_4_3_u00_r3_network.node[12].content_store 	decision_no[12] 	24381
scalar tree_4_3_u00_r3_network.node[12].content_store 	decision_ratio[12] 	0.0024548913710568
scalar tree_4_3_u00_r3_network.node[13].core_layer 	interests[13] 	12092
scalar tree_4_3_u00_r3_network.node[13].core_layer 	data[13] 	8589
scalar tree_4_3_u00_r3_network.node[13].content_store 	p_hit[13] 	0.28961296725108
scalar tree_4_3_u00_r3_network.node[13].content_store 	hits[13] 	3502
scalar tree_4_3_u00_r3_network.node[13].content_store 	misses[13] 	8590
scalar tree_4_3_u00_r3_network.node[13].content_store 	decision_yes[13] 	23
scalar tree_4_3_u00_r3_network.node[13].content_store 	decision_no[13] 	8566
scalar tree_4_3_u00_r3_network.node[13].content_store 	decision_ratio[13] 	0.0026778437536384
scalar tree_4_3_u00_r3_network.node[14].core_layer 	interests[14] 	11971
scalar tree_4_3_u00_r3_network.node[14].core_layer 	data[14] 	8431
scalar tree_4_3_u00_r3_network.node[14].content_store 	p_hit[14] 	0.29571464372233
scalar tree_4_3_u00_r3_network.node[14].content_store 	hits[14] 	3540
scalar tree_4_3_u00_r3_network.node[14].content_store 	misses[14] 	8431
scalar tree_4_3_u00_r3_network.node[14].content_store 	decision_yes[14] 	24
scalar tree_4_3_u00_r3_network.node[14].content_store 	decision_no[14] 	8407
scalar tree_4_3_u00_r3_network.node[14].content_store 	decision_ratio[14] 	0.00284663740956
scalar tree_4_3_u00_r3_network.node[15].core_layer 	interests[15] 	12390
scalar tree_4_3_u00_r3_network.node[15].core_layer 	data[15] 	8780
scalar tree_4_3_u00_r3_network.node[15].content_store 	p_hit[15] 	0.29136400322841
scalar tree_4_3_u00_r3_network.node[15].content_store 	hits[15] 	3610
scalar tree_4_3_u00_r3_network.node[15].content_store 	misses[15] 	8780
scalar tree_4_3_u00_r3_network.node[15].content_store 	decision_yes[15] 	27
scalar tree_4_3_u00_r3_network.node[15].content_store 	decision_no[15] 	8753
scalar tree_4_3_u00_r3_network.node[15].content_store 	decision_ratio[15] 	0.0030751708428246
scalar tree_4_3_u00_r3_network.node[16].core_layer 	interests[16] 	12031
scalar tree_4_3_u00_r3_network.node[16].core_layer 	data[16] 	8494
scalar tree_4_3_u00_r3_network.node[16].content_store 	p_hit[16] 	0.29399052447843
scalar tree_4_3_u00_r3_network.node[16].content_store 	hits[16] 	3537
scalar tree_4_3_u00_r3_network.node[16].content_store 	misses[16] 	8494
scalar tree_4_3_u00_r3_network.node[16].content_store 	decision_yes[16] 	23
scalar tree_4_3_u00_r3_network.node[16].content_store 	decision_no[16] 	8471
scalar tree_4_3_u00_r3_network.node[16].content_store 	decision_ratio[16] 	0.0027077937367554
scalar tree_4_3_u00_r3_network.node[17].core_layer 	interests[17] 	12229
scalar tree_4_3_u00_r3_network.node[17].core_layer 	data[17] 	8562
scalar tree_4_3_u00_r3_network.node[17].content_store 	p_hit[17] 	0.29994275901546
scalar tree_4_3_u00_r3_network.node[17].content_store 	hits[17] 	3668
scalar tree_4_3_u00_r3_network.node[17].content_store 	misses[17] 	8561
scalar tree_4_3_u00_r3_network.node[17].content_store 	decision_yes[17] 	24
scalar tree_4_3_u00_r3_network.node[17].content_store 	decision_no[17] 	8538
scalar tree_4_3_u00_r3_network.node[17].content_store 	decision_ratio[17] 	0.0028030833917309
scalar tree_4_3_u00_r3_network.node[18].core_layer 	interests[18] 	12116
scalar tree_4_3_u00_r3_network.node[18].core_layer 	data[18] 	8585
scalar tree_4_3_u00_r3_network.node[18].content_store 	p_hit[18] 	0.29143281611093
scalar tree_4_3_u00_r3_network.node[18].content_store 	hits[18] 	3531
scalar tree_4_3_u00_r3_network.node[18].content_store 	misses[18] 	8585
scalar tree_4_3_u00_r3_network.node[18].content_store 	decision_yes[18] 	26
scalar tree_4_3_u00_r3_network.node[18].content_store 	decision_no[18] 	8559
scalar tree_4_3_u00_r3_network.node[18].content_store 	decision_ratio[18] 	0.0030285381479324
scalar tree_4_3_u00_r3_network.node[19].core_layer 	interests[19] 	12162
scalar tree_4_3_u00_r3_network.node[19].core_layer 	data[19] 	8579
scalar tree_4_3_u00_r3_network.node[19].content_store 	p_hit[19] 	0.29460615030423
scalar tree_4_3_u00_r3_network.node[19].content_store 	hits[19] 	3583
scalar tree_4_3_u00_r3_network.node[19].content_store 	misses[19] 	8579
scalar tree_4_3_u00_r3_network.node[19].content_store 	decision_yes[19] 	34
scalar tree_4_3_u00_r3_network.node[19].content_store 	decision_no[19] 	8545
scalar tree_4_3_u00_r3_network.node[19].content_store 	decision_ratio[19] 	0.003963165870148
scalar tree_4_3_u00_r3_network.node[20].core_layer 	interests[20] 	12124
scalar tree_4_3_u00_r3_network.node[20].core_layer 	data[20] 	8560
scalar tree_4_3_u00_r3_network.node[20].content_store 	p_hit[20] 	0.29404486967997
scalar tree_4_3_u00_r3_network.node[20].content_store 	hits[20] 	3565
scalar tree_4_3_u00_r3_network.node[20].content_store 	misses[20] 	8559
scalar tree_4_3_u00_r3_network.node[20].content_store 	decision_yes[20] 	20
scalar tree_4_3_u00_r3_network.node[20].content_store 	decision_no[20] 	8540
scalar tree_4_3_u00_r3_network.node[20].content_store 	decision_ratio[20] 	0.0023364485981308
scalar tree_4_3_u00_r3_network.node[21].core_layer 	interests[21] 	12265
scalar tree_4_3_u00_r3_network.node[21].core_layer 	data[21] 	8676
scalar tree_4_3_u00_r3_network.node[21].content_store 	p_hit[21] 	0.29262128006523
scalar tree_4_3_u00_r3_network.node[21].content_store 	hits[21] 	3589
scalar tree_4_3_u00_r3_network.node[21].content_store 	misses[21] 	8676
scalar tree_4_3_u00_r3_network.node[21].content_store 	decision_yes[21] 	28
scalar tree_4_3_u00_r3_network.node[21].content_store 	decision_no[21] 	8648
scalar tree_4_3_u00_r3_network.node[21].content_store 	decision_ratio[21] 	0.0032272936837252
scalar tree_4_3_u00_r3_network.node[22].core_layer 	interests[22] 	12152
scalar tree_4_3_u00_r3_network.node[22].core_layer 	data[22] 	8616
scalar tree_4_3_u00_r3_network.node[22].content_store 	p_hit[22] 	0.29098090849243
scalar tree_4_3_u00_r3_network.node[22].content_store 	hits[22] 	3536
scalar tree_4_3_u00_r3_network.node[22].content_store 	misses[22] 	8616
scalar tree_4_3_u00_r3_network.node[22].content_store 	decision_yes[22] 	24
scalar tree_4_3_u00_r3_network.node[22].content_store 	decision_no[22] 	8592
scalar tree_4_3_u00_r3_network.node[22].content_store 	decision_ratio[22] 	0.0027855153203343
scalar tree_4_3_u00_r3_network.node[23].core_layer 	interests[23] 	12070
scalar tree_4_3_u00_r3_network.node[23].core_layer 	data[23] 	8509
scalar tree_4_3_u00_r3_network.node[23].content_store 	p_hit[23] 	0.2950289975145
scalar tree_4_3_u00_r3_network.node[23].content_store 	hits[23] 	3561
scalar tree_4_3_u00_r3_network.node[23].content_store 	misses[23] 	8509
scalar tree_4_3_u00_r3_network.node[23].content_store 	decision_yes[23] 	24
scalar tree_4_3_u00_r3_network.node[23].content_store 	decision_no[23] 	8485
scalar tree_4_3_u00_r3_network.node[23].content_store 	decision_ratio[23] 	0.0028205429545187
scalar tree_4_3_u00_r3_network.node[24].core_layer 	interests[24] 	12079
scalar tree_4_3_u00_r3_network.node[24].core_layer 	data[24] 	8592
scalar tree_4_3_u00_r3_network.node[24].content_store 	p_hit[24] 	0.28868283798328
scalar tree_4_3_u00_r3_network.node[24].content_store 	hits[24] 	3487
scalar tree_4_3_u00_r3_network.node[24].content_store 	misses[24] 	8592
scalar tree_4_3_u00_r3_network.node[24].content_store 	decision_yes[24] 	30
scalar tree_4_3_u00_r3_network.node[24].content_store 	decision_no[24] 	8562
scalar tree_4_3_u00_r3_network.node[24].content_store 	decision_ratio[24] 	0.0034916201117318
scalar tree_4_3_u00_r3_network.node[25].core_layer 	interests[25] 	12115
scalar tree_4_3_u00_r3_network.node[25].core_layer 	data[25] 	8504
scalar tree_4_3_u00_r3_network.node[25].content_store 	p_hit[25] 	0.29806025588114
scalar tree_4_3_u00_r3_network.node[25].content_store 	hits[25] 	3611
scalar tree_4_3_u00_r3_network.node[25].content_store 	misses[25] 	8504
scalar tree_4_3_u00_r3_network.node[25].content_store 	decision_yes[25] 	28
scalar tree_4_3_u00_r3_network.node[25].content_store 	decision_no[25] 	8476
scalar tree_4_3_u00_r3_network.node[25].content_store 	decision_ratio[25] 	0.0032925682031985
scalar tree_4_3_u00_r3_network.node[26].core_layer 	interests[26] 	12117
scalar tree_4_3_u00_r3_network.node[26].core_layer 	data[26] 	8562
scalar tree_4_3_u00_r3_network.node[26].content_store 	p_hit[26] 	0.29347198151358
scalar tree_4_3_u00_r3_network.node[26].content_store 	hits[26] 	3556
scalar tree_4_3_u00_r3_network.node[26].content_store 	misses[26] 	8561
scalar tree_4_3_u00_r3_network.node[26].content_store 	decision_yes[26] 	27
scalar tree_4_3_u00_r3_network.node[26].content_store 	decision_no[26] 	8535
scalar tree_4_3_u00_r3_network.node[26].content_store 	decision_ratio[26] 	0.0031534688156973
scalar tree_4_3_u00_r3_network.node[27].core_layer 	interests[27] 	12255
scalar tree_4_3_u00_r3_network.node[27].core_layer 	data[27] 	8659
scalar tree_4_3_u00_r3_network.node[27].content_store 	p_hit[27] 	0.29351285189718
scalar tree_4_3_u00_r3_network.node[27].content_store 	hits[27] 	3597
scalar tree_4_3_u00_r3_network.node[27].content_store 	misses[27] 	8658
scalar tree_4_3_u00_r3_network.node[27].content_store 	decision_yes[27] 	28
scalar tree_4_3_u00_r3_network.node[27].content_store 	decision_no[27] 	8631
scalar tree_4_3_u00_r3_network.node[27].content_store 	decision_ratio[27] 	0.0032336297493937
scalar tree_4_3_u00_r3_network.node[28].core_layer 	interests[28] 	12173
scalar tree_4_3_u00_r3_network.node[28].core_layer 	data[28] 	8625
scalar tree_4_3_u00_r3_network.node[28].content_store 	p_hit[28] 	0.29146471699663
scalar tree_4_3_u00_r3_network.node[28].content_store 	hits[28] 	3548
scalar tree_4_3_u00_r3_network.node[28].content_store 	misses[28] 	8625
scalar tree_4_3_u00_r3_network.node[28].content_store 	decision_yes[28] 	25
scalar tree_4_3_u00_r3_network.node[28].content_store 	decision_no[28] 	8600
scalar tree_4_3_u00_r3_network.node[28].content_store 	decision_ratio[28] 	0.0028985507246377
scalar tree_4_3_u00_r3_network.node[29].core_layer 	interests[29] 	12272
scalar tree_4_3_u00_r3_network.node[29].core_layer 	data[29] 	8626
scalar tree_4_3_u00_r3_network.node[29].content_store 	p_hit[29] 	0.29709908735332
scalar tree_4_3_u00_r3_network.node[29].content_store 	hits[29] 	3646
scalar tree_4_3_u00_r3_network.node[29].content_store 	misses[29] 	8626
scalar tree_4_3_u00_r3_network.node[29].content_store 	decision_yes[29] 	40
scalar tree_4_3_u00_r3_network.node[29].content_store 	decision_no[29] 	8586
scalar tree_4_3_u00_r3_network.node[29].content_store 	decision_ratio[29] 	0.0046371435195919
scalar tree_4_3_u00_r3_network.node[30].core_layer 	interests[30] 	12157
scalar tree_4_3_u00_r3_network.node[30].core_layer 	data[30] 	8595
scalar tree_4_3_u00_r3_network.node[30].content_store 	p_hit[30] 	0.29299991774286
scalar tree_4_3_u00_r3_network.node[30].content_store 	hits[30] 	3562
scalar tree_4_3_u00_r3_network.node[30].content_store 	misses[30] 	8595
scalar tree_4_3_u00_r3_network.node[30].content_store 	decision_yes[30] 	24
scalar tree_4_3_u00_r3_network.node[30].content_store 	decision_no[30] 	8571
scalar tree_4_3_u00_r3_network.node[30].content_store 	decision_ratio[30] 	0.0027923211169284
scalar tree_4_3_u00_r3_network.node[31].core_layer 	interests[31] 	12161
scalar tree_4_3_u00_r3_network.node[31].core_layer 	data[31] 	8632
scalar tree_4_3_u00_r3_network.node[31].content_store 	p_hit[31] 	0.29018995148425
scalar tree_4_3_u00_r3_network.node[31].content_store 	hits[31] 	3529
scalar tree_4_3_u00_r3_network.node[31].content_store 	misses[31] 	8632
scalar tree_4_3_u00_r3_network.node[31].content_store 	decision_yes[31] 	30
scalar tree_4_3_u00_r3_network.node[31].content_store 	decision_no[31] 	8602
scalar tree_4_3_u00_r3_network.node[31].content_store 	decision_ratio[31] 	0.0034754402224282
scalar tree_4_3_u00_r3_network.node[32].core_layer 	interests[32] 	12175
scalar tree_4_3_u00_r3_network.node[32].core_layer 	data[32] 	8608
scalar tree_4_3_u00_r3_network.node[32].content_store 	p_hit[32] 	0.29297741273101
scalar tree_4_3_u00_r3_network.node[32].content_store 	hits[32] 	3567
scalar tree_4_3_u00_r3_network.node[32].content_store 	misses[32] 	8608
scalar tree_4_3_u00_r3_network.node[32].content_store 	decision_yes[32] 	22
scalar tree_4_3_u00_r3_network.node[32].content_store 	decision_no[32] 	8586
scalar tree_4_3_u00_r3_network.node[32].content_store 	decision_ratio[32] 	0.0025557620817844
scalar tree_4_3_u00_r3_network.node[33].core_layer 	interests[33] 	12057
scalar tree_4_3_u00_r3_network.node[33].core_layer 	data[33] 	8561
scalar tree_4_3_u00_r3_network.node[33].content_store 	p_hit[33] 	0.29003898150452
scalar tree_4_3_u00_r3_network.node[33].content_store 	hits[33] 	3497
scalar tree_4_3_u00_r3_network.node[33].content_store 	misses[33] 	8560
scalar tree_4_3_u00_r3_network.node[33].content_store 	decision_yes[33] 	30
scalar tree_4_3_u00_r3_network.node[33].content_store 	decision_no[33] 	8531
scalar tree_4_3_u00_r3_network.node[33].content_store 	decision_ratio[33] 	0.0035042635206168
scalar tree_4_3_u00_r3_network.node[34].core_layer 	interests[34] 	11901
scalar tree_4_3_u00_r3_network.node[34].core_layer 	data[34] 	8487
scalar tree_4_3_u00_r3_network.node[34].content_store 	p_hit[34] 	0.28686664986136
scalar tree_4_3_u00_r3_network.node[34].content_store 	hits[34] 	3414
scalar tree_4_3_u00_r3_network.node[34].content_store 	misses[34] 	8487
scalar tree_4_3_u00_r3_network.node[34].content_store 	decision_yes[34] 	26
scalar tree_4_3_u00_r3_network.node[34].content_store 	decision_no[34] 	8461
scalar tree_4_3_u00_r3_network.node[34].content_store 	decision_ratio[34] 	0.0030635088959585
scalar tree_4_3_u00_r3_network.node[35].core_layer 	interests[35] 	12152
scalar tree_4_3_u00_r3_network.node[35].core_layer 	data[35] 	8615
scalar tree_4_3_u00_r3_network.node[35].content_store 	p_hit[35] 	0.29106319947334
scalar tree_4_3_u00_r3_network.node[35].content_store 	hits[35] 	3537
scalar tree_4_3_u00_r3_network.node[35].content_store 	misses[35] 	8615
scalar tree_4_3_u00_r3_network.node[35].content_store 	decision_yes[35] 	21
scalar tree_4_3_u00_r3_network.node[35].content_store 	decision_no[35] 	8594
scalar tree_4_3_u00_r3_network.node[35].content_store 	decision_ratio[35] 	0.0024376088218224
scalar tree_4_3_u00_r3_network.node[36].core_layer 	interests[36] 	12207
scalar tree_4_3_u00_r3_network.node[36].core_layer 	data[36] 	8690
scalar tree_4_3_u00_r3_network.node[36].content_store 	p_hit[36] 	0.28811337757025
scalar tree_4_3_u00_r3_network.node[36].content_store 	hits[36] 	3517
scalar tree_4_3_u00_r3_network.node[36].content_store 	misses[36] 	8690
scalar tree_4_3_u00_r3_network.node[36].content_store 	decision_yes[36] 	21
scalar tree_4_3_u00_r3_network.node[36].content_store 	decision_no[36] 	8669
scalar tree_4_3_u00_r3_network.node[36].content_store 	decision_ratio[36] 	0.0024165707710012
scalar tree_4_3_u00_r3_network.node[37].core_layer 	interests[37] 	12137
scalar tree_4_3_u00_r3_network.node[37].core_layer 	data[37] 	8589
scalar tree_4_3_u00_r3_network.node[37].content_store 	p_hit[37] 	0.29232924116338
scalar tree_4_3_u00_r3_network.node[37].content_store 	hits[37] 	3548
scalar tree_4_3_u00_r3_network.node[37].content_store 	misses[37] 	8589
scalar tree_4_3_u00_r3_network.node[37].content_store 	decision_yes[37] 	31
scalar tree_4_3_u00_r3_network.node[37].content_store 	decision_no[37] 	8558
scalar tree_4_3_u00_r3_network.node[37].content_store 	decision_ratio[37] 	0.0036092676679474
scalar tree_4_3_u00_r3_network.node[38].core_layer 	interests[38] 	12216
scalar tree_4_3_u00_r3_network.node[38].core_layer 	data[38] 	8549
scalar tree_4_3_u00_r3_network.node[38].content_store 	p_hit[38] 	0.30026195153897
scalar tree_4_3_u00_r3_network.node[38].content_store 	hits[38] 	3668
scalar tree_4_3_u00_r3_network.node[38].content_store 	misses[38] 	8548
scalar tree_4_3_u00_r3_network.node[38].content_store 	decision_yes[38] 	18
scalar tree_4_3_u00_r3_network.node[38].content_store 	decision_no[38] 	8531
scalar tree_4_3_u00_r3_network.node[38].content_store 	decision_ratio[38] 	0.002105509416306
scalar tree_4_3_u00_r3_network.node[39].core_layer 	interests[39] 	12245
scalar tree_4_3_u00_r3_network.node[39].core_layer 	data[39] 	8629
scalar tree_4_3_u00_r3_network.node[39].content_store 	p_hit[39] 	0.2953858717844
scalar tree_4_3_u00_r3_network.node[39].content_store 	hits[39] 	3617
scalar tree_4_3_u00_r3_network.node[39].content_store 	misses[39] 	8628
scalar tree_4_3_u00_r3_network.node[39].content_store 	decision_yes[39] 	23
scalar tree_4_3_u00_r3_network.node[39].content_store 	decision_no[39] 	8606
scalar tree_4_3_u00_r3_network.node[39].content_store 	decision_ratio[39] 	0.0026654305249739
scalar tree_4_3_u00_r3_network.client[13] 	hdistance[13] 	2.6898553162853
scalar tree_4_3_u00_r3_network.client[13] 	downloads[13] 	11888
scalar tree_4_3_u00_r3_network.client[13] 	avg_time[13] 	0.004123482906
scalar tree_4_3_u00_r3_network.client[14] 	hdistance[14] 	2.6542143159678
scalar tree_4_3_u00_r3_network.client[14] 	downloads[14] 	11805
scalar tree_4_3_u00_r3_network.client[14] 	avg_time[14] 	0.004070814498
scalar tree_4_3_u00_r3_network.client[15] 	hdistance[15] 	2.6607961992136
scalar tree_4_3_u00_r3_network.client[15] 	downloads[15] 	12208
scalar tree_4_3_u00_r3_network.client[15] 	avg_time[15] 	0.004087972054
scalar tree_4_3_u00_r3_network.client[16] 	hdistance[16] 	2.6630645842127
scalar tree_4_3_u00_r3_network.client[16] 	downloads[16] 	11845
scalar tree_4_3_u00_r3_network.client[16] 	avg_time[16] 	0.004086447018
scalar tree_4_3_u00_r3_network.client[17] 	hdistance[17] 	2.6383880348982
scalar tree_4_3_u00_r3_network.client[17] 	downloads[17] 	12035
scalar tree_4_3_u00_r3_network.client[17] 	avg_time[17] 	0.004050183923
scalar tree_4_3_u00_r3_network.client[18] 	hdistance[18] 	2.6718500462301
scalar tree_4_3_u00_r3_network.client[18] 	downloads[18] 	11897
scalar tree_4_3_u00_r3_network.client[18] 	avg_time[18] 	0.004098341137
scalar tree_4_3_u00_r3_network.client[19] 	hdistance[19] 	2.6510286001003
scalar tree_4_3_u00_r3_network.client[19] 	downloads[19] 	11958
scalar tree_4_3_u00_r3_network.client[19] 	avg_time[19] 	0.004069908349
scalar tree_4_3_u00_r3_network.client[20] 	hdistance[20] 	2.658813700919
scalar tree_4_3_u00_r3_network.client[20] 	downloads[20] 	11970
scalar tree_4_3_u00_r3_network.client[20] 	avg_time[20] 	0.004077691177
scalar tree_4_3_u00_r3_network.client[21] 	hdistance[21] 	2.6603664575768
scalar tree_4_3_u00_r3_network.client[21] 	downloads[21] 	12116
scalar tree_4_3_u00_r3_network.client[21] 	avg_time[21] 	0.004076246699
scalar tree_4_3_u00_r3_network.client[22] 	hdistance[22] 	2.6664437385053
scalar tree_4_3_u00_r3_network.client[22] 	downloads[22] 	11962
scalar tree_4_3_u00_r3_network.client[22] 	avg_time[22] 	0.004092289241
scalar tree_4_3_u00_r3_network.client[23] 	hdistance[23] 	2.6524113594354
scalar tree_4_3_u00_r3_network.client[23] 	downloads[23] 	11902
scalar tree_4_3_u00_r3_network.client[23] 	avg_time[23] 	0.004067884787
scalar tree_4_3_u00_r3_network.client[24] 	hdistance[24] 	2.6908310179338
scalar tree_4_3_u00_r3_network.client[24] 	downloads[24] 	11877
scalar tree_4_3_u00_r3_network.client[24] 	avg_time[24] 	0.004123597291
scalar tree_4_3_u00_r3_network.client[25] 	hdistance[25] 	2.6390093395597
scalar tree_4_3_u00_r3_network.client[25] 	downloads[25] 	11992
scalar tree_4_3_u00_r3_network.client[25] 	avg_time[25] 	0.004045527373
scalar tree_4_3_u00_r3_network.client[26] 	hdistance[26] 	2.6527454242929
scalar tree_4_3_u00_r3_network.client[26] 	downloads[26] 	12020
scalar tree_4_3_u00_r3_network.client[26] 	avg_time[26] 	0.004068882188
scalar tree_4_3_u00_r3_network.client[27] 	hdistance[27] 	2.6580469266358
scalar tree_4_3_u00_r3_network.client[27] 	downloads[27] 	12104
scalar tree_4_3_u00_r3_network.client[27] 	avg_time[27] 	0.004077492022
scalar tree_4_3_u00_r3_network.client[28] 	hdistance[28] 	2.6727014850659
scalar tree_4_3_u00_r3_network.client[28] 	downloads[28] 	11986
scalar tree_4_3_u00_r3_network.client[28] 	avg_time[28] 	0.00410111498
scalar tree_4_3_u00_r3_network.client[29] 	hdistance[29] 	2.6424076833913
scalar tree_4_3_u00_r3_network.client[29] 	downloads[29] 	12078
scalar tree_4_3_u00_r3_network.client[29] 	avg_time[29] 	0.004059866461
scalar tree_4_3_u00_r3_network.client[30] 	hdistance[30] 	2.6829431999329
scalar tree_4_3_u00_r3_network.client[30] 	downloads[30] 	11919
scalar tree_4_3_u00_r3_network.client[30] 	avg_time[30] 	0.004113429375
scalar tree_4_3_u00_r3_network.client[31] 	hdistance[31] 	2.6644098963557
scalar tree_4_3_u00_r3_network.client[31] 	downloads[31] 	11964
scalar tree_4_3_u00_r3_network.client[31] 	avg_time[31] 	0.004094112712
scalar tree_4_3_u00_r3_network.client[32] 	hdistance[32] 	2.6658601701986
scalar tree_4_3_u00_r3_network.client[32] 	downloads[32] 	11986
scalar tree_4_3_u00_r3_network.client[32] 	avg_time[32] 	0.004089434665
scalar tree_4_3_u00_r3_network.client[33] 	hdistance[33] 	2.6725954648908
scalar tree_4_3_u00_r3_network.client[33] 	downloads[33] 	11863
scalar tree_4_3_u00_r3_network.client[33] 	avg_time[33] 	0.00410115188
scalar tree_4_3_u00_r3_network.client[34] 	hdistance[34] 	2.6803983317729
scalar tree_4_3_u00_r3_network.client[34] 	downloads[34] 	11749
scalar tree_4_3_u00_r3_network.client[34] 	avg_time[34] 	0.004110609932
scalar tree_4_3_u00_r3_network.client[35] 	hdistance[35] 	2.680875961217
scalar tree_4_3_u00_r3_network.client[35] 	downloads[35] 	11964
scalar tree_4_3_u00_r3_network.client[35] 	avg_time[35] 	0.004109492155
scalar tree_4_3_u00_r3_network.client[36] 	hdistance[36] 	2.6878689615033
scalar tree_4_3_u00_r3_network.client[36] 	downloads[36] 	12027
scalar tree_4_3_u00_r3_network.client[36] 	avg_time[36] 	0.004119260403
scalar tree_4_3_u00_r3_network.client[37] 	hdistance[37] 	2.6649315758542
scalar tree_4_3_u00_r3_network.client[37] 	downloads[37] 	11911
scalar tree_4_3_u00_r3_network.client[37] 	avg_time[37] 	0.004091676988
scalar tree_4_3_u00_r3_network.client[38] 	hdistance[38] 	2.6444555778223
scalar tree_4_3_u00_r3_network.client[38] 	downloads[38] 	11976
scalar tree_4_3_u00_r3_network.client[38] 	avg_time[38] 	0.004060284229
scalar tree_4_3_u00_r3_network.client[39] 	hdistance[39] 	2.6573889993373
scalar tree_4_3_u00_r3_network.client[39] 	downloads[39] 	12072
scalar tree_4_3_u00_r3_network.client[39] 	avg_time[39] 	0.004075709341
