version 2
run General-531-20160901-12:34:58-8710
attr a 0.9
attr cd ffc
attr configname General
attr cr lru
attr datetime 20160901-12:34:58
attr experiment General
attr fsize 1
attr inifile hw5115/scenario_Y/omnetp.ini
attr iterationvars "$name=tree_4_3, $un=08, $rep=18, $cd=ffc, $cr=lru, $fsize=1, $a=0.9, $sl=nrr, $ttl=1000, $variance=0.05"
attr iterationvars2 "$name=tree_4_3, $un=08, $rep=18, $cd=ffc, $cr=lru, $fsize=1, $a=0.9, $sl=nrr, $ttl=1000, $variance=0.05, $repetition=0"
attr measurement "$name=tree_4_3, $un=08, $rep=18, $cd=ffc, $cr=lru, $fsize=1, $a=0.9, $sl=nrr, $ttl=1000, $variance=0.05"
attr name tree_4_3
attr network networks.${name}_u${un}_r${rep}_network
attr processid 8710
attr rep 18
attr repetition 0
attr replication #0
attr resultdir results
attr runnumber 531
attr seedset 18
attr sl nrr
attr ttl 1000
attr un 08
attr variance 0.05

scalar . 	a 	0.9
scalar . 	fsize 	1
scalar . 	rep 	18
scalar . 	ttl 	1000
scalar . 	un 	08
scalar . 	variance 	0.05
scalar tree_4_3_u08_r18_network.content_distribution 	repo-0 	0
scalar tree_4_3_u08_r18_network.content_distribution 	client-0 	13
scalar tree_4_3_u08_r18_network.content_distribution 	client-1 	14
scalar tree_4_3_u08_r18_network.content_distribution 	client-2 	15
scalar tree_4_3_u08_r18_network.content_distribution 	client-3 	16
scalar tree_4_3_u08_r18_network.content_distribution 	client-4 	17
scalar tree_4_3_u08_r18_network.content_distribution 	client-5 	18
scalar tree_4_3_u08_r18_network.content_distribution 	client-6 	19
scalar tree_4_3_u08_r18_network.content_distribution 	client-7 	20
scalar tree_4_3_u08_r18_network.content_distribution 	client-8 	21
scalar tree_4_3_u08_r18_network.content_distribution 	client-9 	22
scalar tree_4_3_u08_r18_network.content_distribution 	client-10 	23
scalar tree_4_3_u08_r18_network.content_distribution 	client-11 	24
scalar tree_4_3_u08_r18_network.content_distribution 	client-12 	25
scalar tree_4_3_u08_r18_network.content_distribution 	client-13 	26
scalar tree_4_3_u08_r18_network.content_distribution 	client-14 	27
scalar tree_4_3_u08_r18_network.content_distribution 	client-15 	28
scalar tree_4_3_u08_r18_network.content_distribution 	client-16 	29
scalar tree_4_3_u08_r18_network.content_distribution 	client-17 	30
scalar tree_4_3_u08_r18_network.content_distribution 	client-18 	31
scalar tree_4_3_u08_r18_network.content_distribution 	client-19 	32
scalar tree_4_3_u08_r18_network.content_distribution 	client-20 	33
scalar tree_4_3_u08_r18_network.content_distribution 	client-21 	34
scalar tree_4_3_u08_r18_network.content_distribution 	client-22 	35
scalar tree_4_3_u08_r18_network.content_distribution 	client-23 	36
scalar tree_4_3_u08_r18_network.content_distribution 	client-24 	37
scalar tree_4_3_u08_r18_network.content_distribution 	client-25 	38
scalar tree_4_3_u08_r18_network.content_distribution 	client-26 	39
scalar tree_4_3_u08_r18_network.content_distribution 	repo-0_card 	100000
scalar tree_4_3_u08_r18_network.content_distribution 	repo-0_price 	0
scalar tree_4_3_u08_r18_network.statistics 	stabilization_time 	1082.6
scalar tree_4_3_u08_r18_network.statistics 	p_hit 	0.24271630475886
scalar tree_4_3_u08_r18_network.statistics 	interests 	24698.625
scalar tree_4_3_u08_r18_network.statistics 	data 	16599.225
scalar tree_4_3_u08_r18_network.statistics 	hdistance 	2.6030716154948
scalar tree_4_3_u08_r18_network.statistics 	avg_time 	0.004098834034
scalar tree_4_3_u08_r18_network.statistics 	downloads 	323977
scalar tree_4_3_u08_r18_network.statistics 	total_cost 	0
scalar tree_4_3_u08_r18_network.statistics 	total_replicas 	100000
scalar tree_4_3_u08_r18_network.statistics 	inner_hit 	0.44635575982246
scalar tree_4_3_u08_r18_network.node[0].core_layer 	interests[0] 	181542
scalar tree_4_3_u08_r18_network.node[0].core_layer 	repo_load[0] 	179368
scalar tree_4_3_u08_r18_network.node[0].core_layer 	data[0] 	0
scalar tree_4_3_u08_r18_network.node[0].core_layer 	repo_int[0] 	179368
scalar tree_4_3_u08_r18_network.node[0].content_store 	p_hit[0] 	0.011975190314087
scalar tree_4_3_u08_r18_network.node[0].content_store 	hits[0] 	2174
scalar tree_4_3_u08_r18_network.node[0].content_store 	misses[0] 	179368
scalar tree_4_3_u08_r18_network.node[0].content_store 	decision_yes[0] 	757
scalar tree_4_3_u08_r18_network.node[0].content_store 	decision_no[0] 	178611
scalar tree_4_3_u08_r18_network.node[0].content_store 	decision_ratio[0] 	0.0042203737567459
scalar tree_4_3_u08_r18_network.node[1].core_layer 	interests[1] 	131015
scalar tree_4_3_u08_r18_network.node[1].core_layer 	data[1] 	128545
scalar tree_4_3_u08_r18_network.node[1].content_store 	p_hit[1] 	0.018845170400336
scalar tree_4_3_u08_r18_network.node[1].content_store 	hits[1] 	2469
scalar tree_4_3_u08_r18_network.node[1].content_store 	misses[1] 	128546
scalar tree_4_3_u08_r18_network.node[1].content_store 	decision_yes[1] 	642
scalar tree_4_3_u08_r18_network.node[1].content_store 	decision_no[1] 	127903
scalar tree_4_3_u08_r18_network.node[1].content_store 	decision_ratio[1] 	0.0049943599517679
scalar tree_4_3_u08_r18_network.node[2].core_layer 	interests[2] 	62827
scalar tree_4_3_u08_r18_network.node[2].core_layer 	data[2] 	59597
scalar tree_4_3_u08_r18_network.node[2].content_store 	p_hit[2] 	0.051411017556146
scalar tree_4_3_u08_r18_network.node[2].content_store 	hits[2] 	3230
scalar tree_4_3_u08_r18_network.node[2].content_store 	misses[2] 	59597
scalar tree_4_3_u08_r18_network.node[2].content_store 	decision_yes[2] 	362
scalar tree_4_3_u08_r18_network.node[2].content_store 	decision_no[2] 	59235
scalar tree_4_3_u08_r18_network.node[2].content_store 	decision_ratio[2] 	0.0060741312482172
scalar tree_4_3_u08_r18_network.node[3].core_layer 	interests[3] 	14506
scalar tree_4_3_u08_r18_network.node[3].core_layer 	data[3] 	10913
scalar tree_4_3_u08_r18_network.node[3].content_store 	p_hit[3] 	0.24769061078175
scalar tree_4_3_u08_r18_network.node[3].content_store 	hits[3] 	3593
scalar tree_4_3_u08_r18_network.node[3].content_store 	misses[3] 	10913
scalar tree_4_3_u08_r18_network.node[3].content_store 	decision_yes[3] 	377
scalar tree_4_3_u08_r18_network.node[3].content_store 	decision_no[3] 	10536
scalar tree_4_3_u08_r18_network.node[3].content_store 	decision_ratio[3] 	0.034545954366352
scalar tree_4_3_u08_r18_network.node[4].core_layer 	interests[4] 	33590
scalar tree_4_3_u08_r18_network.node[4].core_layer 	data[4] 	31289
scalar tree_4_3_u08_r18_network.node[4].content_store 	p_hit[4] 	0.068532301280143
scalar tree_4_3_u08_r18_network.node[4].content_store 	hits[4] 	2302
scalar tree_4_3_u08_r18_network.node[4].content_store 	misses[4] 	31288
scalar tree_4_3_u08_r18_network.node[4].content_store 	decision_yes[4] 	234
scalar tree_4_3_u08_r18_network.node[4].content_store 	decision_no[4] 	31055
scalar tree_4_3_u08_r18_network.node[4].content_store 	decision_ratio[4] 	0.0074786666240532
scalar tree_4_3_u08_r18_network.node[5].core_layer 	interests[5] 	30665
scalar tree_4_3_u08_r18_network.node[5].core_layer 	data[5] 	26943
scalar tree_4_3_u08_r18_network.node[5].content_store 	p_hit[5] 	0.12137616174792
scalar tree_4_3_u08_r18_network.node[5].content_store 	hits[5] 	3722
scalar tree_4_3_u08_r18_network.node[5].content_store 	misses[5] 	26943
scalar tree_4_3_u08_r18_network.node[5].content_store 	decision_yes[5] 	393
scalar tree_4_3_u08_r18_network.node[5].content_store 	decision_no[5] 	26550
scalar tree_4_3_u08_r18_network.node[5].content_store 	decision_ratio[5] 	0.014586348958913
scalar tree_4_3_u08_r18_network.node[6].core_layer 	interests[6] 	21318
scalar tree_4_3_u08_r18_network.node[6].core_layer 	data[6] 	18180
scalar tree_4_3_u08_r18_network.node[6].content_store 	p_hit[6] 	0.14719954967633
scalar tree_4_3_u08_r18_network.node[6].content_store 	hits[6] 	3138
scalar tree_4_3_u08_r18_network.node[6].content_store 	misses[6] 	18180
scalar tree_4_3_u08_r18_network.node[6].content_store 	decision_yes[6] 	291
scalar tree_4_3_u08_r18_network.node[6].content_store 	decision_no[6] 	17889
scalar tree_4_3_u08_r18_network.node[6].content_store 	decision_ratio[6] 	0.016006600660066
scalar tree_4_3_u08_r18_network.node[7].core_layer 	interests[7] 	35901
scalar tree_4_3_u08_r18_network.node[7].core_layer 	data[7] 	32498
scalar tree_4_3_u08_r18_network.node[7].content_store 	p_hit[7] 	0.09478844600429
scalar tree_4_3_u08_r18_network.node[7].content_store 	hits[7] 	3403
scalar tree_4_3_u08_r18_network.node[7].content_store 	misses[7] 	32498
scalar tree_4_3_u08_r18_network.node[7].content_store 	decision_yes[7] 	288
scalar tree_4_3_u08_r18_network.node[7].content_store 	decision_no[7] 	32210
scalar tree_4_3_u08_r18_network.node[7].content_store 	decision_ratio[7] 	0.0088620838205428
scalar tree_4_3_u08_r18_network.node[8].core_layer 	interests[8] 	26840
scalar tree_4_3_u08_r18_network.node[8].core_layer 	data[8] 	24143
scalar tree_4_3_u08_r18_network.node[8].content_store 	p_hit[8] 	0.10044709388972
scalar tree_4_3_u08_r18_network.node[8].content_store 	hits[8] 	2696
scalar tree_4_3_u08_r18_network.node[8].content_store 	misses[8] 	24144
scalar tree_4_3_u08_r18_network.node[8].content_store 	decision_yes[8] 	226
scalar tree_4_3_u08_r18_network.node[8].content_store 	decision_no[8] 	23917
scalar tree_4_3_u08_r18_network.node[8].content_store 	decision_ratio[8] 	0.0093608913556725
scalar tree_4_3_u08_r18_network.node[9].core_layer 	interests[9] 	22168
scalar tree_4_3_u08_r18_network.node[9].core_layer 	data[9] 	18710
scalar tree_4_3_u08_r18_network.node[9].content_store 	p_hit[9] 	0.15599061710574
scalar tree_4_3_u08_r18_network.node[9].content_store 	hits[9] 	3458
scalar tree_4_3_u08_r18_network.node[9].content_store 	misses[9] 	18710
scalar tree_4_3_u08_r18_network.node[9].content_store 	decision_yes[9] 	335
scalar tree_4_3_u08_r18_network.node[9].content_store 	decision_no[9] 	18375
scalar tree_4_3_u08_r18_network.node[9].content_store 	decision_ratio[9] 	0.017904863709246
scalar tree_4_3_u08_r18_network.node[10].core_layer 	interests[10] 	44535
scalar tree_4_3_u08_r18_network.node[10].core_layer 	data[10] 	41216
scalar tree_4_3_u08_r18_network.node[10].content_store 	p_hit[10] 	0.074548108229482
scalar tree_4_3_u08_r18_network.node[10].content_store 	hits[10] 	3320
scalar tree_4_3_u08_r18_network.node[10].content_store 	misses[10] 	41215
scalar tree_4_3_u08_r18_network.node[10].content_store 	decision_yes[10] 	370
scalar tree_4_3_u08_r18_network.node[10].content_store 	decision_no[10] 	40846
scalar tree_4_3_u08_r18_network.node[10].content_store 	decision_ratio[10] 	0.0089770962732919
scalar tree_4_3_u08_r18_network.node[11].core_layer 	interests[11] 	28921
scalar tree_4_3_u08_r18_network.node[11].core_layer 	data[11] 	25545
scalar tree_4_3_u08_r18_network.node[11].content_store 	p_hit[11] 	0.11666263268905
scalar tree_4_3_u08_r18_network.node[11].content_store 	hits[11] 	3374
scalar tree_4_3_u08_r18_network.node[11].content_store 	misses[11] 	25547
scalar tree_4_3_u08_r18_network.node[11].content_store 	decision_yes[11] 	301
scalar tree_4_3_u08_r18_network.node[11].content_store 	decision_no[11] 	25244
scalar tree_4_3_u08_r18_network.node[11].content_store 	decision_ratio[11] 	0.011783127813662
scalar tree_4_3_u08_r18_network.node[12].core_layer 	interests[12] 	11134
scalar tree_4_3_u08_r18_network.node[12].core_layer 	data[12] 	8829
scalar tree_4_3_u08_r18_network.node[12].content_store 	p_hit[12] 	0.20702353152506
scalar tree_4_3_u08_r18_network.node[12].content_store 	hits[12] 	2305
scalar tree_4_3_u08_r18_network.node[12].content_store 	misses[12] 	8829
scalar tree_4_3_u08_r18_network.node[12].content_store 	decision_yes[12] 	131
scalar tree_4_3_u08_r18_network.node[12].content_store 	decision_no[12] 	8698
scalar tree_4_3_u08_r18_network.node[12].content_store 	decision_ratio[12] 	0.014837467436856
scalar tree_4_3_u08_r18_network.node[13].core_layer 	interests[13] 	12386
scalar tree_4_3_u08_r18_network.node[13].core_layer 	data[13] 	8792
scalar tree_4_3_u08_r18_network.node[13].content_store 	p_hit[13] 	0.2902470531245
scalar tree_4_3_u08_r18_network.node[13].content_store 	hits[13] 	3595
scalar tree_4_3_u08_r18_network.node[13].content_store 	misses[13] 	8791
scalar tree_4_3_u08_r18_network.node[13].content_store 	decision_yes[13] 	108
scalar tree_4_3_u08_r18_network.node[13].content_store 	decision_no[13] 	8684
scalar tree_4_3_u08_r18_network.node[13].content_store 	decision_ratio[13] 	0.0122838944495
scalar tree_4_3_u08_r18_network.node[14].core_layer 	interests[14] 	13007
scalar tree_4_3_u08_r18_network.node[14].core_layer 	data[14] 	8805
scalar tree_4_3_u08_r18_network.node[14].content_store 	p_hit[14] 	0.32297993388176
scalar tree_4_3_u08_r18_network.node[14].content_store 	hits[14] 	4201
scalar tree_4_3_u08_r18_network.node[14].content_store 	misses[14] 	8806
scalar tree_4_3_u08_r18_network.node[14].content_store 	decision_yes[14] 	117
scalar tree_4_3_u08_r18_network.node[14].content_store 	decision_no[14] 	8688
scalar tree_4_3_u08_r18_network.node[14].content_store 	decision_ratio[14] 	0.013287904599659
scalar tree_4_3_u08_r18_network.node[15].core_layer 	interests[15] 	13091
scalar tree_4_3_u08_r18_network.node[15].core_layer 	data[15] 	8919
scalar tree_4_3_u08_r18_network.node[15].content_store 	p_hit[15] 	0.31869223130395
scalar tree_4_3_u08_r18_network.node[15].content_store 	hits[15] 	4172
scalar tree_4_3_u08_r18_network.node[15].content_store 	misses[15] 	8919
scalar tree_4_3_u08_r18_network.node[15].content_store 	decision_yes[15] 	109
scalar tree_4_3_u08_r18_network.node[15].content_store 	decision_no[15] 	8810
scalar tree_4_3_u08_r18_network.node[15].content_store 	decision_ratio[15] 	0.012221101020294
scalar tree_4_3_u08_r18_network.node[16].core_layer 	interests[16] 	12833
scalar tree_4_3_u08_r18_network.node[16].core_layer 	data[16] 	8707
scalar tree_4_3_u08_r18_network.node[16].content_store 	p_hit[16] 	0.32151484454142
scalar tree_4_3_u08_r18_network.node[16].content_store 	hits[16] 	4126
scalar tree_4_3_u08_r18_network.node[16].content_store 	misses[16] 	8707
scalar tree_4_3_u08_r18_network.node[16].content_store 	decision_yes[16] 	126
scalar tree_4_3_u08_r18_network.node[16].content_store 	decision_no[16] 	8581
scalar tree_4_3_u08_r18_network.node[16].content_store 	decision_ratio[16] 	0.014471115194671
scalar tree_4_3_u08_r18_network.node[17].core_layer 	interests[17] 	12589
scalar tree_4_3_u08_r18_network.node[17].core_layer 	data[17] 	8846
scalar tree_4_3_u08_r18_network.node[17].content_store 	p_hit[17] 	0.29732305981412
scalar tree_4_3_u08_r18_network.node[17].content_store 	hits[17] 	3743
scalar tree_4_3_u08_r18_network.node[17].content_store 	misses[17] 	8846
scalar tree_4_3_u08_r18_network.node[17].content_store 	decision_yes[17] 	130
scalar tree_4_3_u08_r18_network.node[17].content_store 	decision_no[17] 	8716
scalar tree_4_3_u08_r18_network.node[17].content_store 	decision_ratio[17] 	0.014695907754917
scalar tree_4_3_u08_r18_network.node[18].core_layer 	interests[18] 	12698
scalar tree_4_3_u08_r18_network.node[18].core_layer 	data[18] 	8906
scalar tree_4_3_u08_r18_network.node[18].content_store 	p_hit[18] 	0.29862970546543
scalar tree_4_3_u08_r18_network.node[18].content_store 	hits[18] 	3792
scalar tree_4_3_u08_r18_network.node[18].content_store 	misses[18] 	8906
scalar tree_4_3_u08_r18_network.node[18].content_store 	decision_yes[18] 	119
scalar tree_4_3_u08_r18_network.node[18].content_store 	decision_no[18] 	8787
scalar tree_4_3_u08_r18_network.node[18].content_store 	decision_ratio[18] 	0.013361778576241
scalar tree_4_3_u08_r18_network.node[19].core_layer 	interests[19] 	12363
scalar tree_4_3_u08_r18_network.node[19].core_layer 	data[19] 	8778
scalar tree_4_3_u08_r18_network.node[19].content_store 	p_hit[19] 	0.28997816064062
scalar tree_4_3_u08_r18_network.node[19].content_store 	hits[19] 	3585
scalar tree_4_3_u08_r18_network.node[19].content_store 	misses[19] 	8778
scalar tree_4_3_u08_r18_network.node[19].content_store 	decision_yes[19] 	117
scalar tree_4_3_u08_r18_network.node[19].content_store 	decision_no[19] 	8661
scalar tree_4_3_u08_r18_network.node[19].content_store 	decision_ratio[19] 	0.013328776486671
scalar tree_4_3_u08_r18_network.node[20].core_layer 	interests[20] 	13317
scalar tree_4_3_u08_r18_network.node[20].core_layer 	data[20] 	8905
scalar tree_4_3_u08_r18_network.node[20].content_store 	p_hit[20] 	0.33130584966584
scalar tree_4_3_u08_r18_network.node[20].content_store 	hits[20] 	4412
scalar tree_4_3_u08_r18_network.node[20].content_store 	misses[20] 	8905
scalar tree_4_3_u08_r18_network.node[20].content_store 	decision_yes[20] 	124
scalar tree_4_3_u08_r18_network.node[20].content_store 	decision_no[20] 	8781
scalar tree_4_3_u08_r18_network.node[20].content_store 	decision_ratio[20] 	0.013924761370017
scalar tree_4_3_u08_r18_network.node[21].core_layer 	interests[21] 	12384
scalar tree_4_3_u08_r18_network.node[21].core_layer 	data[21] 	8656
scalar tree_4_3_u08_r18_network.node[21].content_store 	p_hit[21] 	0.30103359173127
scalar tree_4_3_u08_r18_network.node[21].content_store 	hits[21] 	3728
scalar tree_4_3_u08_r18_network.node[21].content_store 	misses[21] 	8656
scalar tree_4_3_u08_r18_network.node[21].content_store 	decision_yes[21] 	131
scalar tree_4_3_u08_r18_network.node[21].content_store 	decision_no[21] 	8525
scalar tree_4_3_u08_r18_network.node[21].content_store 	decision_ratio[21] 	0.015134011090573
scalar tree_4_3_u08_r18_network.node[22].core_layer 	interests[22] 	12449
scalar tree_4_3_u08_r18_network.node[22].core_layer 	data[22] 	8785
scalar tree_4_3_u08_r18_network.node[22].content_store 	p_hit[22] 	0.29432082898225
scalar tree_4_3_u08_r18_network.node[22].content_store 	hits[22] 	3664
scalar tree_4_3_u08_r18_network.node[22].content_store 	misses[22] 	8785
scalar tree_4_3_u08_r18_network.node[22].content_store 	decision_yes[22] 	107
scalar tree_4_3_u08_r18_network.node[22].content_store 	decision_no[22] 	8678
scalar tree_4_3_u08_r18_network.node[22].content_store 	decision_ratio[22] 	0.012179852020489
scalar tree_4_3_u08_r18_network.node[23].core_layer 	interests[23] 	12944
scalar tree_4_3_u08_r18_network.node[23].core_layer 	data[23] 	8922
scalar tree_4_3_u08_r18_network.node[23].content_store 	p_hit[23] 	0.31072311495674
scalar tree_4_3_u08_r18_network.node[23].content_store 	hits[23] 	4022
scalar tree_4_3_u08_r18_network.node[23].content_store 	misses[23] 	8922
scalar tree_4_3_u08_r18_network.node[23].content_store 	decision_yes[23] 	119
scalar tree_4_3_u08_r18_network.node[23].content_store 	decision_no[23] 	8803
scalar tree_4_3_u08_r18_network.node[23].content_store 	decision_ratio[23] 	0.013337816633042
scalar tree_4_3_u08_r18_network.node[24].core_layer 	interests[24] 	12949
scalar tree_4_3_u08_r18_network.node[24].core_layer 	data[24] 	8919
scalar tree_4_3_u08_r18_network.node[24].content_store 	p_hit[24] 	0.31129816974284
scalar tree_4_3_u08_r18_network.node[24].content_store 	hits[24] 	4031
scalar tree_4_3_u08_r18_network.node[24].content_store 	misses[24] 	8918
scalar tree_4_3_u08_r18_network.node[24].content_store 	decision_yes[24] 	131
scalar tree_4_3_u08_r18_network.node[24].content_store 	decision_no[24] 	8788
scalar tree_4_3_u08_r18_network.node[24].content_store 	decision_ratio[24] 	0.014687745262922
scalar tree_4_3_u08_r18_network.node[25].core_layer 	interests[25] 	12682
scalar tree_4_3_u08_r18_network.node[25].core_layer 	data[25] 	8630
scalar tree_4_3_u08_r18_network.node[25].content_store 	p_hit[25] 	0.31950796404353
scalar tree_4_3_u08_r18_network.node[25].content_store 	hits[25] 	4052
scalar tree_4_3_u08_r18_network.node[25].content_store 	misses[25] 	8630
scalar tree_4_3_u08_r18_network.node[25].content_store 	decision_yes[25] 	103
scalar tree_4_3_u08_r18_network.node[25].content_store 	decision_no[25] 	8527
scalar tree_4_3_u08_r18_network.node[25].content_store 	decision_ratio[25] 	0.011935110081112
scalar tree_4_3_u08_r18_network.node[26].core_layer 	interests[26] 	12293
scalar tree_4_3_u08_r18_network.node[26].core_layer 	data[26] 	8685
scalar tree_4_3_u08_r18_network.node[26].content_store 	p_hit[26] 	0.29350036606199
scalar tree_4_3_u08_r18_network.node[26].content_store 	hits[26] 	3608
scalar tree_4_3_u08_r18_network.node[26].content_store 	misses[26] 	8685
scalar tree_4_3_u08_r18_network.node[26].content_store 	decision_yes[26] 	122
scalar tree_4_3_u08_r18_network.node[26].content_store 	decision_no[26] 	8563
scalar tree_4_3_u08_r18_network.node[26].content_store 	decision_ratio[26] 	0.014047207829591
scalar tree_4_3_u08_r18_network.node[27].core_layer 	interests[27] 	12848
scalar tree_4_3_u08_r18_network.node[27].core_layer 	data[27] 	8756
scalar tree_4_3_u08_r18_network.node[27].content_store 	p_hit[27] 	0.31849315068493
scalar tree_4_3_u08_r18_network.node[27].content_store 	hits[27] 	4092
scalar tree_4_3_u08_r18_network.node[27].content_store 	misses[27] 	8756
scalar tree_4_3_u08_r18_network.node[27].content_store 	decision_yes[27] 	105
scalar tree_4_3_u08_r18_network.node[27].content_store 	decision_no[27] 	8651
scalar tree_4_3_u08_r18_network.node[27].content_store 	decision_ratio[27] 	0.011991777067154
scalar tree_4_3_u08_r18_network.node[28].core_layer 	interests[28] 	12361
scalar tree_4_3_u08_r18_network.node[28].core_layer 	data[28] 	8650
scalar tree_4_3_u08_r18_network.node[28].content_store 	p_hit[28] 	0.3002184289297
scalar tree_4_3_u08_r18_network.node[28].content_store 	hits[28] 	3711
scalar tree_4_3_u08_r18_network.node[28].content_store 	misses[28] 	8650
scalar tree_4_3_u08_r18_network.node[28].content_store 	decision_yes[28] 	106
scalar tree_4_3_u08_r18_network.node[28].content_store 	decision_no[28] 	8544
scalar tree_4_3_u08_r18_network.node[28].content_store 	decision_ratio[28] 	0.012254335260116
scalar tree_4_3_u08_r18_network.node[29].core_layer 	interests[29] 	13078
scalar tree_4_3_u08_r18_network.node[29].core_layer 	data[29] 	8923
scalar tree_4_3_u08_r18_network.node[29].content_store 	p_hit[29] 	0.31763266554519
scalar tree_4_3_u08_r18_network.node[29].content_store 	hits[29] 	4154
scalar tree_4_3_u08_r18_network.node[29].content_store 	misses[29] 	8924
scalar tree_4_3_u08_r18_network.node[29].content_store 	decision_yes[29] 	127
scalar tree_4_3_u08_r18_network.node[29].content_store 	decision_no[29] 	8796
scalar tree_4_3_u08_r18_network.node[29].content_store 	decision_ratio[29] 	0.014232881317942
scalar tree_4_3_u08_r18_network.node[30].core_layer 	interests[30] 	12370
scalar tree_4_3_u08_r18_network.node[30].core_layer 	data[30] 	8731
scalar tree_4_3_u08_r18_network.node[30].content_store 	p_hit[30] 	0.29417946645109
scalar tree_4_3_u08_r18_network.node[30].content_store 	hits[30] 	3639
scalar tree_4_3_u08_r18_network.node[30].content_store 	misses[30] 	8731
scalar tree_4_3_u08_r18_network.node[30].content_store 	decision_yes[30] 	105
scalar tree_4_3_u08_r18_network.node[30].content_store 	decision_no[30] 	8626
scalar tree_4_3_u08_r18_network.node[30].content_store 	decision_ratio[30] 	0.012026113847211
scalar tree_4_3_u08_r18_network.node[31].core_layer 	interests[31] 	12699
scalar tree_4_3_u08_r18_network.node[31].core_layer 	data[31] 	8836
scalar tree_4_3_u08_r18_network.node[31].content_store 	p_hit[31] 	0.30427592723837
scalar tree_4_3_u08_r18_network.node[31].content_store 	hits[31] 	3864
scalar tree_4_3_u08_r18_network.node[31].content_store 	misses[31] 	8835
scalar tree_4_3_u08_r18_network.node[31].content_store 	decision_yes[31] 	116
scalar tree_4_3_u08_r18_network.node[31].content_store 	decision_no[31] 	8720
scalar tree_4_3_u08_r18_network.node[31].content_store 	decision_ratio[31] 	0.013128112267995
scalar tree_4_3_u08_r18_network.node[32].core_layer 	interests[32] 	13132
scalar tree_4_3_u08_r18_network.node[32].core_layer 	data[32] 	8958
scalar tree_4_3_u08_r18_network.node[32].content_store 	p_hit[32] 	0.31784952787085
scalar tree_4_3_u08_r18_network.node[32].content_store 	hits[32] 	4174
scalar tree_4_3_u08_r18_network.node[32].content_store 	misses[32] 	8958
scalar tree_4_3_u08_r18_network.node[32].content_store 	decision_yes[32] 	111
scalar tree_4_3_u08_r18_network.node[32].content_store 	decision_no[32] 	8847
scalar tree_4_3_u08_r18_network.node[32].content_store 	decision_ratio[32] 	0.01239115874079
scalar tree_4_3_u08_r18_network.node[33].core_layer 	interests[33] 	12623
scalar tree_4_3_u08_r18_network.node[33].core_layer 	data[33] 	8717
scalar tree_4_3_u08_r18_network.node[33].content_store 	p_hit[33] 	0.30943515804484
scalar tree_4_3_u08_r18_network.node[33].content_store 	hits[33] 	3906
scalar tree_4_3_u08_r18_network.node[33].content_store 	misses[33] 	8717
scalar tree_4_3_u08_r18_network.node[33].content_store 	decision_yes[33] 	96
scalar tree_4_3_u08_r18_network.node[33].content_store 	decision_no[33] 	8621
scalar tree_4_3_u08_r18_network.node[33].content_store 	decision_ratio[33] 	0.011012963175404
scalar tree_4_3_u08_r18_network.node[34].core_layer 	interests[34] 	12928
scalar tree_4_3_u08_r18_network.node[34].core_layer 	data[34] 	8790
scalar tree_4_3_u08_r18_network.node[34].content_store 	p_hit[34] 	0.32008044554455
scalar tree_4_3_u08_r18_network.node[34].content_store 	hits[34] 	4138
scalar tree_4_3_u08_r18_network.node[34].content_store 	misses[34] 	8790
scalar tree_4_3_u08_r18_network.node[34].content_store 	decision_yes[34] 	122
scalar tree_4_3_u08_r18_network.node[34].content_store 	decision_no[34] 	8668
scalar tree_4_3_u08_r18_network.node[34].content_store 	decision_ratio[34] 	0.013879408418658
scalar tree_4_3_u08_r18_network.node[35].core_layer 	interests[35] 	12375
scalar tree_4_3_u08_r18_network.node[35].core_layer 	data[35] 	8753
scalar tree_4_3_u08_r18_network.node[35].content_store 	p_hit[35] 	0.29260606060606
scalar tree_4_3_u08_r18_network.node[35].content_store 	hits[35] 	3621
scalar tree_4_3_u08_r18_network.node[35].content_store 	misses[35] 	8754
scalar tree_4_3_u08_r18_network.node[35].content_store 	decision_yes[35] 	108
scalar tree_4_3_u08_r18_network.node[35].content_store 	decision_no[35] 	8645
scalar tree_4_3_u08_r18_network.node[35].content_store 	decision_ratio[35] 	0.012338626756541
scalar tree_4_3_u08_r18_network.node[36].core_layer 	interests[36] 	12709
scalar tree_4_3_u08_r18_network.node[36].core_layer 	data[36] 	8800
scalar tree_4_3_u08_r18_network.node[36].content_store 	p_hit[36] 	0.30757730741994
scalar tree_4_3_u08_r18_network.node[36].content_store 	hits[36] 	3909
scalar tree_4_3_u08_r18_network.node[36].content_store 	misses[36] 	8800
scalar tree_4_3_u08_r18_network.node[36].content_store 	decision_yes[36] 	112
scalar tree_4_3_u08_r18_network.node[36].content_store 	decision_no[36] 	8688
scalar tree_4_3_u08_r18_network.node[36].content_store 	decision_ratio[36] 	0.012727272727273
scalar tree_4_3_u08_r18_network.node[37].core_layer 	interests[37] 	12895
scalar tree_4_3_u08_r18_network.node[37].core_layer 	data[37] 	8853
scalar tree_4_3_u08_r18_network.node[37].content_store 	p_hit[37] 	0.3134548274525
scalar tree_4_3_u08_r18_network.node[37].content_store 	hits[37] 	4042
scalar tree_4_3_u08_r18_network.node[37].content_store 	misses[37] 	8853
scalar tree_4_3_u08_r18_network.node[37].content_store 	decision_yes[37] 	121
scalar tree_4_3_u08_r18_network.node[37].content_store 	decision_no[37] 	8732
scalar tree_4_3_u08_r18_network.node[37].content_store 	decision_ratio[37] 	0.013667683271208
scalar tree_4_3_u08_r18_network.node[38].core_layer 	interests[38] 	12712
scalar tree_4_3_u08_r18_network.node[38].core_layer 	data[38] 	8794
scalar tree_4_3_u08_r18_network.node[38].content_store 	p_hit[38] 	0.30813404657017
scalar tree_4_3_u08_r18_network.node[38].content_store 	hits[38] 	3917
scalar tree_4_3_u08_r18_network.node[38].content_store 	misses[38] 	8795
scalar tree_4_3_u08_r18_network.node[38].content_store 	decision_yes[38] 	135
scalar tree_4_3_u08_r18_network.node[38].content_store 	decision_no[38] 	8659
scalar tree_4_3_u08_r18_network.node[38].content_store 	decision_ratio[38] 	0.01535137593814
scalar tree_4_3_u08_r18_network.node[39].core_layer 	interests[39] 	12268
scalar tree_4_3_u08_r18_network.node[39].core_layer 	data[39] 	8745
scalar tree_4_3_u08_r18_network.node[39].content_store 	p_hit[39] 	0.28716987283991
scalar tree_4_3_u08_r18_network.node[39].content_store 	hits[39] 	3523
scalar tree_4_3_u08_r18_network.node[39].content_store 	misses[39] 	8745
scalar tree_4_3_u08_r18_network.node[39].content_store 	decision_yes[39] 	94
scalar tree_4_3_u08_r18_network.node[39].content_store 	decision_no[39] 	8651
scalar tree_4_3_u08_r18_network.node[39].content_store 	decision_ratio[39] 	0.010748999428245
scalar tree_4_3_u08_r18_network.client[13] 	hdistance[13] 	2.6712033195021
scalar tree_4_3_u08_r18_network.client[13] 	downloads[13] 	12050
scalar tree_4_3_u08_r18_network.client[13] 	avg_time[13] 	0.00419966503
scalar tree_4_3_u08_r18_network.client[14] 	hdistance[14] 	2.5873587275011
scalar tree_4_3_u08_r18_network.client[14] 	downloads[14] 	11945
scalar tree_4_3_u08_r18_network.client[14] 	avg_time[14] 	0.004067975234
scalar tree_4_3_u08_r18_network.client[15] 	hdistance[15] 	2.588429479244
scalar tree_4_3_u08_r18_network.client[15] 	downloads[15] 	12117
scalar tree_4_3_u08_r18_network.client[15] 	avg_time[15] 	0.004068990951
scalar tree_4_3_u08_r18_network.client[16] 	hdistance[16] 	2.5991357397051
scalar tree_4_3_u08_r18_network.client[16] 	downloads[16] 	11802
scalar tree_4_3_u08_r18_network.client[16] 	avg_time[16] 	0.004082694912
scalar tree_4_3_u08_r18_network.client[17] 	hdistance[17] 	2.6331198536139
scalar tree_4_3_u08_r18_network.client[17] 	downloads[17] 	12023
scalar tree_4_3_u08_r18_network.client[17] 	avg_time[17] 	0.004159524565
scalar tree_4_3_u08_r18_network.client[18] 	hdistance[18] 	2.6270024772915
scalar tree_4_3_u08_r18_network.client[18] 	downloads[18] 	12110
scalar tree_4_3_u08_r18_network.client[18] 	avg_time[18] 	0.004156231503
scalar tree_4_3_u08_r18_network.client[19] 	hdistance[19] 	2.6314865881173
scalar tree_4_3_u08_r18_network.client[19] 	downloads[19] 	11967
scalar tree_4_3_u08_r18_network.client[19] 	avg_time[19] 	0.004158766947
scalar tree_4_3_u08_r18_network.client[20] 	hdistance[20] 	2.5667690264752
scalar tree_4_3_u08_r18_network.client[20] 	downloads[20] 	12049
scalar tree_4_3_u08_r18_network.client[20] 	avg_time[20] 	0.004041615597
scalar tree_4_3_u08_r18_network.client[21] 	hdistance[21] 	2.6106388351149
scalar tree_4_3_u08_r18_network.client[21] 	downloads[21] 	11881
scalar tree_4_3_u08_r18_network.client[21] 	avg_time[21] 	0.004133393602
scalar tree_4_3_u08_r18_network.client[22] 	hdistance[22] 	2.6417116742833
scalar tree_4_3_u08_r18_network.client[22] 	downloads[22] 	12035
scalar tree_4_3_u08_r18_network.client[22] 	avg_time[22] 	0.004176510515
scalar tree_4_3_u08_r18_network.client[23] 	hdistance[23] 	2.5826667766142
scalar tree_4_3_u08_r18_network.client[23] 	downloads[23] 	12127
scalar tree_4_3_u08_r18_network.client[23] 	avg_time[23] 	0.004067284842
scalar tree_4_3_u08_r18_network.client[24] 	hdistance[24] 	2.5790264673958
scalar tree_4_3_u08_r18_network.client[24] 	downloads[24] 	11977
scalar tree_4_3_u08_r18_network.client[24] 	avg_time[24] 	0.004067793602
scalar tree_4_3_u08_r18_network.client[25] 	hdistance[25] 	2.5736748668527
scalar tree_4_3_u08_r18_network.client[25] 	downloads[25] 	11829
scalar tree_4_3_u08_r18_network.client[25] 	avg_time[25] 	0.004047000185
scalar tree_4_3_u08_r18_network.client[26] 	hdistance[26] 	2.6386772708246
scalar tree_4_3_u08_r18_network.client[26] 	downloads[26] 	11945
scalar tree_4_3_u08_r18_network.client[26] 	avg_time[26] 	0.004146836725
scalar tree_4_3_u08_r18_network.client[27] 	hdistance[27] 	2.580740117746
scalar tree_4_3_u08_r18_network.client[27] 	downloads[27] 	11890
scalar tree_4_3_u08_r18_network.client[27] 	avg_time[27] 	0.00404953891
scalar tree_4_3_u08_r18_network.client[28] 	hdistance[28] 	2.5993960744841
scalar tree_4_3_u08_r18_network.client[28] 	downloads[28] 	11922
scalar tree_4_3_u08_r18_network.client[28] 	avg_time[28] 	0.004100986812
scalar tree_4_3_u08_r18_network.client[29] 	hdistance[29] 	2.5816385343763
scalar tree_4_3_u08_r18_network.client[29] 	downloads[29] 	12145
scalar tree_4_3_u08_r18_network.client[29] 	avg_time[29] 	0.004049070676
scalar tree_4_3_u08_r18_network.client[30] 	hdistance[30] 	2.6104297037964
scalar tree_4_3_u08_r18_network.client[30] 	downloads[30] 	11985
scalar tree_4_3_u08_r18_network.client[30] 	avg_time[30] 	0.004110802162
scalar tree_4_3_u08_r18_network.client[31] 	hdistance[31] 	2.6258305647841
scalar tree_4_3_u08_r18_network.client[31] 	downloads[31] 	12040
scalar tree_4_3_u08_r18_network.client[31] 	avg_time[31] 	0.004149997
scalar tree_4_3_u08_r18_network.client[32] 	hdistance[32] 	2.5798996628012
scalar tree_4_3_u08_r18_network.client[32] 	downloads[32] 	12159
scalar tree_4_3_u08_r18_network.client[32] 	avg_time[32] 	0.004057731947
scalar tree_4_3_u08_r18_network.client[33] 	hdistance[33] 	2.6033449825262
scalar tree_4_3_u08_r18_network.client[33] 	downloads[33] 	12018
scalar tree_4_3_u08_r18_network.client[33] 	avg_time[33] 	0.004104340504
scalar tree_4_3_u08_r18_network.client[34] 	hdistance[34] 	2.5656692649401
scalar tree_4_3_u08_r18_network.client[34] 	downloads[34] 	11931
scalar tree_4_3_u08_r18_network.client[34] 	avg_time[34] 	0.004037072514
scalar tree_4_3_u08_r18_network.client[35] 	hdistance[35] 	2.6246971342635
scalar tree_4_3_u08_r18_network.client[35] 	downloads[35] 	11969
scalar tree_4_3_u08_r18_network.client[35] 	avg_time[35] 	0.004137106379
scalar tree_4_3_u08_r18_network.client[36] 	hdistance[36] 	2.5545757071548
scalar tree_4_3_u08_r18_network.client[36] 	downloads[36] 	12020
scalar tree_4_3_u08_r18_network.client[36] 	avg_time[36] 	0.004022293171
scalar tree_4_3_u08_r18_network.client[37] 	hdistance[37] 	2.5961009747563
scalar tree_4_3_u08_r18_network.client[37] 	downloads[37] 	12003
scalar tree_4_3_u08_r18_network.client[37] 	avg_time[37] 	0.004079143869
scalar tree_4_3_u08_r18_network.client[38] 	hdistance[38] 	2.5722050338657
scalar tree_4_3_u08_r18_network.client[38] 	downloads[38] 	11959
scalar tree_4_3_u08_r18_network.client[38] 	avg_time[38] 	0.004044816793
scalar tree_4_3_u08_r18_network.client[39] 	hdistance[39] 	2.6575047603278
scalar tree_4_3_u08_r18_network.client[39] 	downloads[39] 	12079
scalar tree_4_3_u08_r18_network.client[39] 	avg_time[39] 	0.004151333985
