version 2
run General-489-20160901-10:58:00-8710
attr a 0.9
attr cd ffc
attr configname General
attr cr lru
attr datetime 20160901-10:58:00
attr experiment General
attr fsize 1
attr inifile hw5115/scenario_Y/omnetp.ini
attr iterationvars "$name=tree_4_3, $un=08, $rep=4, $cd=ffc, $cr=lru, $fsize=1, $a=0.9, $sl=nrr, $ttl=1000, $variance=0.05"
attr iterationvars2 "$name=tree_4_3, $un=08, $rep=4, $cd=ffc, $cr=lru, $fsize=1, $a=0.9, $sl=nrr, $ttl=1000, $variance=0.05, $repetition=0"
attr measurement "$name=tree_4_3, $un=08, $rep=4, $cd=ffc, $cr=lru, $fsize=1, $a=0.9, $sl=nrr, $ttl=1000, $variance=0.05"
attr name tree_4_3
attr network networks.${name}_u${un}_r${rep}_network
attr processid 8710
attr rep 4
attr repetition 0
attr replication #0
attr resultdir results
attr runnumber 489
attr seedset 4
attr sl nrr
attr ttl 1000
attr un 08
attr variance 0.05

scalar . 	a 	0.9
scalar . 	fsize 	1
scalar . 	rep 	4
scalar . 	ttl 	1000
scalar . 	un 	08
scalar . 	variance 	0.05
scalar tree_4_3_u08_r4_network.content_distribution 	repo-0 	0
scalar tree_4_3_u08_r4_network.content_distribution 	client-0 	13
scalar tree_4_3_u08_r4_network.content_distribution 	client-1 	14
scalar tree_4_3_u08_r4_network.content_distribution 	client-2 	15
scalar tree_4_3_u08_r4_network.content_distribution 	client-3 	16
scalar tree_4_3_u08_r4_network.content_distribution 	client-4 	17
scalar tree_4_3_u08_r4_network.content_distribution 	client-5 	18
scalar tree_4_3_u08_r4_network.content_distribution 	client-6 	19
scalar tree_4_3_u08_r4_network.content_distribution 	client-7 	20
scalar tree_4_3_u08_r4_network.content_distribution 	client-8 	21
scalar tree_4_3_u08_r4_network.content_distribution 	client-9 	22
scalar tree_4_3_u08_r4_network.content_distribution 	client-10 	23
scalar tree_4_3_u08_r4_network.content_distribution 	client-11 	24
scalar tree_4_3_u08_r4_network.content_distribution 	client-12 	25
scalar tree_4_3_u08_r4_network.content_distribution 	client-13 	26
scalar tree_4_3_u08_r4_network.content_distribution 	client-14 	27
scalar tree_4_3_u08_r4_network.content_distribution 	client-15 	28
scalar tree_4_3_u08_r4_network.content_distribution 	client-16 	29
scalar tree_4_3_u08_r4_network.content_distribution 	client-17 	30
scalar tree_4_3_u08_r4_network.content_distribution 	client-18 	31
scalar tree_4_3_u08_r4_network.content_distribution 	client-19 	32
scalar tree_4_3_u08_r4_network.content_distribution 	client-20 	33
scalar tree_4_3_u08_r4_network.content_distribution 	client-21 	34
scalar tree_4_3_u08_r4_network.content_distribution 	client-22 	35
scalar tree_4_3_u08_r4_network.content_distribution 	client-23 	36
scalar tree_4_3_u08_r4_network.content_distribution 	client-24 	37
scalar tree_4_3_u08_r4_network.content_distribution 	client-25 	38
scalar tree_4_3_u08_r4_network.content_distribution 	client-26 	39
scalar tree_4_3_u08_r4_network.content_distribution 	repo-0_card 	100000
scalar tree_4_3_u08_r4_network.content_distribution 	repo-0_price 	0
scalar tree_4_3_u08_r4_network.statistics 	stabilization_time 	1691.9
scalar tree_4_3_u08_r4_network.statistics 	p_hit 	0.24100840860192
scalar tree_4_3_u08_r4_network.statistics 	interests 	24730.575
scalar tree_4_3_u08_r4_network.statistics 	data 	16637.325
scalar tree_4_3_u08_r4_network.statistics 	hdistance 	2.6171524445385
scalar tree_4_3_u08_r4_network.statistics 	avg_time 	0.004111241231
scalar tree_4_3_u08_r4_network.statistics 	downloads 	323729
scalar tree_4_3_u08_r4_network.statistics 	total_cost 	0
scalar tree_4_3_u08_r4_network.statistics 	total_replicas 	100000
scalar tree_4_3_u08_r4_network.statistics 	inner_hit 	0.43848095166018
scalar tree_4_3_u08_r4_network.node[0].core_layer 	interests[0] 	184005
scalar tree_4_3_u08_r4_network.node[0].core_layer 	repo_load[0] 	181780
scalar tree_4_3_u08_r4_network.node[0].core_layer 	data[0] 	0
scalar tree_4_3_u08_r4_network.node[0].core_layer 	repo_int[0] 	181780
scalar tree_4_3_u08_r4_network.node[0].content_store 	p_hit[0] 	0.012092062715687
scalar tree_4_3_u08_r4_network.node[0].content_store 	hits[0] 	2225
scalar tree_4_3_u08_r4_network.node[0].content_store 	misses[0] 	181780
scalar tree_4_3_u08_r4_network.node[0].content_store 	decision_yes[0] 	757
scalar tree_4_3_u08_r4_network.node[0].content_store 	decision_no[0] 	181023
scalar tree_4_3_u08_r4_network.node[0].content_store 	decision_ratio[0] 	0.0041643745186489
scalar tree_4_3_u08_r4_network.node[1].core_layer 	interests[1] 	139861
scalar tree_4_3_u08_r4_network.node[1].core_layer 	data[1] 	137204
scalar tree_4_3_u08_r4_network.node[1].content_store 	p_hit[1] 	0.018997433165786
scalar tree_4_3_u08_r4_network.node[1].content_store 	hits[1] 	2657
scalar tree_4_3_u08_r4_network.node[1].content_store 	misses[1] 	137204
scalar tree_4_3_u08_r4_network.node[1].content_store 	decision_yes[1] 	684
scalar tree_4_3_u08_r4_network.node[1].content_store 	decision_no[1] 	136520
scalar tree_4_3_u08_r4_network.node[1].content_store 	decision_ratio[1] 	0.0049852773971604
scalar tree_4_3_u08_r4_network.node[2].core_layer 	interests[2] 	57129
scalar tree_4_3_u08_r4_network.node[2].core_layer 	data[2] 	53803
scalar tree_4_3_u08_r4_network.node[2].content_store 	p_hit[2] 	0.058184109646589
scalar tree_4_3_u08_r4_network.node[2].content_store 	hits[2] 	3324
scalar tree_4_3_u08_r4_network.node[2].content_store 	misses[2] 	53805
scalar tree_4_3_u08_r4_network.node[2].content_store 	decision_yes[2] 	398
scalar tree_4_3_u08_r4_network.node[2].content_store 	decision_no[2] 	53405
scalar tree_4_3_u08_r4_network.node[2].content_store 	decision_ratio[2] 	0.0073973570247012
scalar tree_4_3_u08_r4_network.node[3].core_layer 	interests[3] 	10466
scalar tree_4_3_u08_r4_network.node[3].core_layer 	data[3] 	8504
scalar tree_4_3_u08_r4_network.node[3].content_store 	p_hit[3] 	0.18746416969234
scalar tree_4_3_u08_r4_network.node[3].content_store 	hits[3] 	1962
scalar tree_4_3_u08_r4_network.node[3].content_store 	misses[3] 	8504
scalar tree_4_3_u08_r4_network.node[3].content_store 	decision_yes[3] 	121
scalar tree_4_3_u08_r4_network.node[3].content_store 	decision_no[3] 	8383
scalar tree_4_3_u08_r4_network.node[3].content_store 	decision_ratio[3] 	0.014228598306679
scalar tree_4_3_u08_r4_network.node[4].core_layer 	interests[4] 	34308
scalar tree_4_3_u08_r4_network.node[4].core_layer 	data[4] 	31819
scalar tree_4_3_u08_r4_network.node[4].content_store 	p_hit[4] 	0.072548676693483
scalar tree_4_3_u08_r4_network.node[4].content_store 	hits[4] 	2489
scalar tree_4_3_u08_r4_network.node[4].content_store 	misses[4] 	31819
scalar tree_4_3_u08_r4_network.node[4].content_store 	decision_yes[4] 	236
scalar tree_4_3_u08_r4_network.node[4].content_store 	decision_no[4] 	31583
scalar tree_4_3_u08_r4_network.node[4].content_store 	decision_ratio[4] 	0.0074169521355165
scalar tree_4_3_u08_r4_network.node[5].core_layer 	interests[5] 	30110
scalar tree_4_3_u08_r4_network.node[5].core_layer 	data[5] 	26240
scalar tree_4_3_u08_r4_network.node[5].content_store 	p_hit[5] 	0.12856193955497
scalar tree_4_3_u08_r4_network.node[5].content_store 	hits[5] 	3871
scalar tree_4_3_u08_r4_network.node[5].content_store 	misses[5] 	26239
scalar tree_4_3_u08_r4_network.node[5].content_store 	decision_yes[5] 	350
scalar tree_4_3_u08_r4_network.node[5].content_store 	decision_no[5] 	25890
scalar tree_4_3_u08_r4_network.node[5].content_store 	decision_ratio[5] 	0.013338414634146
scalar tree_4_3_u08_r4_network.node[6].core_layer 	interests[6] 	20732
scalar tree_4_3_u08_r4_network.node[6].core_layer 	data[6] 	17793
scalar tree_4_3_u08_r4_network.node[6].content_store 	p_hit[6] 	0.14176152807254
scalar tree_4_3_u08_r4_network.node[6].content_store 	hits[6] 	2939
scalar tree_4_3_u08_r4_network.node[6].content_store 	misses[6] 	17793
scalar tree_4_3_u08_r4_network.node[6].content_store 	decision_yes[6] 	281
scalar tree_4_3_u08_r4_network.node[6].content_store 	decision_no[6] 	17512
scalar tree_4_3_u08_r4_network.node[6].content_store 	decision_ratio[6] 	0.015792727477098
scalar tree_4_3_u08_r4_network.node[7].core_layer 	interests[7] 	44798
scalar tree_4_3_u08_r4_network.node[7].core_layer 	data[7] 	41262
scalar tree_4_3_u08_r4_network.node[7].content_store 	p_hit[7] 	0.078887450332604
scalar tree_4_3_u08_r4_network.node[7].content_store 	hits[7] 	3534
scalar tree_4_3_u08_r4_network.node[7].content_store 	misses[7] 	41264
scalar tree_4_3_u08_r4_network.node[7].content_store 	decision_yes[7] 	389
scalar tree_4_3_u08_r4_network.node[7].content_store 	decision_no[7] 	40873
scalar tree_4_3_u08_r4_network.node[7].content_store 	decision_ratio[7] 	0.009427560467258
scalar tree_4_3_u08_r4_network.node[8].core_layer 	interests[8] 	27915
scalar tree_4_3_u08_r4_network.node[8].core_layer 	data[8] 	25110
scalar tree_4_3_u08_r4_network.node[8].content_store 	p_hit[8] 	0.10048361096185
scalar tree_4_3_u08_r4_network.node[8].content_store 	hits[8] 	2805
scalar tree_4_3_u08_r4_network.node[8].content_store 	misses[8] 	25110
scalar tree_4_3_u08_r4_network.node[8].content_store 	decision_yes[8] 	247
scalar tree_4_3_u08_r4_network.node[8].content_store 	decision_no[8] 	24863
scalar tree_4_3_u08_r4_network.node[8].content_store 	decision_ratio[8] 	0.009836718438869
scalar tree_4_3_u08_r4_network.node[9].core_layer 	interests[9] 	12290
scalar tree_4_3_u08_r4_network.node[9].core_layer 	data[9] 	9383
scalar tree_4_3_u08_r4_network.node[9].content_store 	p_hit[9] 	0.23653376729048
scalar tree_4_3_u08_r4_network.node[9].content_store 	hits[9] 	2907
scalar tree_4_3_u08_r4_network.node[9].content_store 	misses[9] 	9383
scalar tree_4_3_u08_r4_network.node[9].content_store 	decision_yes[9] 	201
scalar tree_4_3_u08_r4_network.node[9].content_store 	decision_no[9] 	9182
scalar tree_4_3_u08_r4_network.node[9].content_store 	decision_ratio[9] 	0.021421720132154
scalar tree_4_3_u08_r4_network.node[10].core_layer 	interests[10] 	44344
scalar tree_4_3_u08_r4_network.node[10].core_layer 	data[10] 	41177
scalar tree_4_3_u08_r4_network.node[10].content_store 	p_hit[10] 	0.071396355764027
scalar tree_4_3_u08_r4_network.node[10].content_store 	hits[10] 	3166
scalar tree_4_3_u08_r4_network.node[10].content_store 	misses[10] 	41178
scalar tree_4_3_u08_r4_network.node[10].content_store 	decision_yes[10] 	397
scalar tree_4_3_u08_r4_network.node[10].content_store 	decision_no[10] 	40780
scalar tree_4_3_u08_r4_network.node[10].content_store 	decision_ratio[10] 	0.0096413046117978
scalar tree_4_3_u08_r4_network.node[11].core_layer 	interests[11] 	28864
scalar tree_4_3_u08_r4_network.node[11].core_layer 	data[11] 	25759
scalar tree_4_3_u08_r4_network.node[11].content_store 	p_hit[11] 	0.10757344789357
scalar tree_4_3_u08_r4_network.node[11].content_store 	hits[11] 	3105
scalar tree_4_3_u08_r4_network.node[11].content_store 	misses[11] 	25759
scalar tree_4_3_u08_r4_network.node[11].content_store 	decision_yes[11] 	325
scalar tree_4_3_u08_r4_network.node[11].content_store 	decision_no[11] 	25434
scalar tree_4_3_u08_r4_network.node[11].content_store 	decision_ratio[11] 	0.012616949415738
scalar tree_4_3_u08_r4_network.node[12].core_layer 	interests[12] 	10794
scalar tree_4_3_u08_r4_network.node[12].core_layer 	data[12] 	8789
scalar tree_4_3_u08_r4_network.node[12].content_store 	p_hit[12] 	0.18575134333889
scalar tree_4_3_u08_r4_network.node[12].content_store 	hits[12] 	2005
scalar tree_4_3_u08_r4_network.node[12].content_store 	misses[12] 	8789
scalar tree_4_3_u08_r4_network.node[12].content_store 	decision_yes[12] 	136
scalar tree_4_3_u08_r4_network.node[12].content_store 	decision_no[12] 	8653
scalar tree_4_3_u08_r4_network.node[12].content_store 	decision_ratio[12] 	0.015473887814313
scalar tree_4_3_u08_r4_network.node[13].core_layer 	interests[13] 	12497
scalar tree_4_3_u08_r4_network.node[13].core_layer 	data[13] 	8908
scalar tree_4_3_u08_r4_network.node[13].content_store 	p_hit[13] 	0.28718892534208
scalar tree_4_3_u08_r4_network.node[13].content_store 	hits[13] 	3589
scalar tree_4_3_u08_r4_network.node[13].content_store 	misses[13] 	8908
scalar tree_4_3_u08_r4_network.node[13].content_store 	decision_yes[13] 	110
scalar tree_4_3_u08_r4_network.node[13].content_store 	decision_no[13] 	8798
scalar tree_4_3_u08_r4_network.node[13].content_store 	decision_ratio[13] 	0.012348450830714
scalar tree_4_3_u08_r4_network.node[14].core_layer 	interests[14] 	12921
scalar tree_4_3_u08_r4_network.node[14].core_layer 	data[14] 	8795
scalar tree_4_3_u08_r4_network.node[14].content_store 	p_hit[14] 	0.31924773624332
scalar tree_4_3_u08_r4_network.node[14].content_store 	hits[14] 	4125
scalar tree_4_3_u08_r4_network.node[14].content_store 	misses[14] 	8796
scalar tree_4_3_u08_r4_network.node[14].content_store 	decision_yes[14] 	122
scalar tree_4_3_u08_r4_network.node[14].content_store 	decision_no[14] 	8673
scalar tree_4_3_u08_r4_network.node[14].content_store 	decision_ratio[14] 	0.013871517907902
scalar tree_4_3_u08_r4_network.node[15].core_layer 	interests[15] 	13026
scalar tree_4_3_u08_r4_network.node[15].core_layer 	data[15] 	8885
scalar tree_4_3_u08_r4_network.node[15].content_store 	p_hit[15] 	0.31782588668816
scalar tree_4_3_u08_r4_network.node[15].content_store 	hits[15] 	4140
scalar tree_4_3_u08_r4_network.node[15].content_store 	misses[15] 	8886
scalar tree_4_3_u08_r4_network.node[15].content_store 	decision_yes[15] 	111
scalar tree_4_3_u08_r4_network.node[15].content_store 	decision_no[15] 	8774
scalar tree_4_3_u08_r4_network.node[15].content_store 	decision_ratio[15] 	0.012492965672482
scalar tree_4_3_u08_r4_network.node[16].core_layer 	interests[16] 	12968
scalar tree_4_3_u08_r4_network.node[16].core_layer 	data[16] 	8931
scalar tree_4_3_u08_r4_network.node[16].content_store 	p_hit[16] 	0.31130475015423
scalar tree_4_3_u08_r4_network.node[16].content_store 	hits[16] 	4037
scalar tree_4_3_u08_r4_network.node[16].content_store 	misses[16] 	8931
scalar tree_4_3_u08_r4_network.node[16].content_store 	decision_yes[16] 	118
scalar tree_4_3_u08_r4_network.node[16].content_store 	decision_no[16] 	8813
scalar tree_4_3_u08_r4_network.node[16].content_store 	decision_ratio[16] 	0.013212406225507
scalar tree_4_3_u08_r4_network.node[17].core_layer 	interests[17] 	12688
scalar tree_4_3_u08_r4_network.node[17].core_layer 	data[17] 	8904
scalar tree_4_3_u08_r4_network.node[17].content_store 	p_hit[17] 	0.29831336696091
scalar tree_4_3_u08_r4_network.node[17].content_store 	hits[17] 	3785
scalar tree_4_3_u08_r4_network.node[17].content_store 	misses[17] 	8903
scalar tree_4_3_u08_r4_network.node[17].content_store 	decision_yes[17] 	112
scalar tree_4_3_u08_r4_network.node[17].content_store 	decision_no[17] 	8792
scalar tree_4_3_u08_r4_network.node[17].content_store 	decision_ratio[17] 	0.012578616352201
scalar tree_4_3_u08_r4_network.node[18].core_layer 	interests[18] 	12831
scalar tree_4_3_u08_r4_network.node[18].core_layer 	data[18] 	8788
scalar tree_4_3_u08_r4_network.node[18].content_store 	p_hit[18] 	0.31501831501832
scalar tree_4_3_u08_r4_network.node[18].content_store 	hits[18] 	4042
scalar tree_4_3_u08_r4_network.node[18].content_store 	misses[18] 	8789
scalar tree_4_3_u08_r4_network.node[18].content_store 	decision_yes[18] 	126
scalar tree_4_3_u08_r4_network.node[18].content_store 	decision_no[18] 	8662
scalar tree_4_3_u08_r4_network.node[18].content_store 	decision_ratio[18] 	0.014337733272645
scalar tree_4_3_u08_r4_network.node[19].core_layer 	interests[19] 	12460
scalar tree_4_3_u08_r4_network.node[19].core_layer 	data[19] 	8857
scalar tree_4_3_u08_r4_network.node[19].content_store 	p_hit[19] 	0.28916532905297
scalar tree_4_3_u08_r4_network.node[19].content_store 	hits[19] 	3603
scalar tree_4_3_u08_r4_network.node[19].content_store 	misses[19] 	8857
scalar tree_4_3_u08_r4_network.node[19].content_store 	decision_yes[19] 	111
scalar tree_4_3_u08_r4_network.node[19].content_store 	decision_no[19] 	8746
scalar tree_4_3_u08_r4_network.node[19].content_store 	decision_ratio[19] 	0.012532460200971
scalar tree_4_3_u08_r4_network.node[20].core_layer 	interests[20] 	12884
scalar tree_4_3_u08_r4_network.node[20].core_layer 	data[20] 	8861
scalar tree_4_3_u08_r4_network.node[20].content_store 	p_hit[20] 	0.31224774914623
scalar tree_4_3_u08_r4_network.node[20].content_store 	hits[20] 	4023
scalar tree_4_3_u08_r4_network.node[20].content_store 	misses[20] 	8861
scalar tree_4_3_u08_r4_network.node[20].content_store 	decision_yes[20] 	108
scalar tree_4_3_u08_r4_network.node[20].content_store 	decision_no[20] 	8753
scalar tree_4_3_u08_r4_network.node[20].content_store 	decision_ratio[20] 	0.012188240604898
scalar tree_4_3_u08_r4_network.node[21].core_layer 	interests[21] 	12467
scalar tree_4_3_u08_r4_network.node[21].core_layer 	data[21] 	8751
scalar tree_4_3_u08_r4_network.node[21].content_store 	p_hit[21] 	0.29806689660704
scalar tree_4_3_u08_r4_network.node[21].content_store 	hits[21] 	3716
scalar tree_4_3_u08_r4_network.node[21].content_store 	misses[21] 	8751
scalar tree_4_3_u08_r4_network.node[21].content_store 	decision_yes[21] 	104
scalar tree_4_3_u08_r4_network.node[21].content_store 	decision_no[21] 	8647
scalar tree_4_3_u08_r4_network.node[21].content_store 	decision_ratio[21] 	0.011884356073592
scalar tree_4_3_u08_r4_network.node[22].core_layer 	interests[22] 	12587
scalar tree_4_3_u08_r4_network.node[22].core_layer 	data[22] 	8841
scalar tree_4_3_u08_r4_network.node[22].content_store 	p_hit[22] 	0.29760864383888
scalar tree_4_3_u08_r4_network.node[22].content_store 	hits[22] 	3746
scalar tree_4_3_u08_r4_network.node[22].content_store 	misses[22] 	8841
scalar tree_4_3_u08_r4_network.node[22].content_store 	decision_yes[22] 	98
scalar tree_4_3_u08_r4_network.node[22].content_store 	decision_no[22] 	8743
scalar tree_4_3_u08_r4_network.node[22].content_store 	decision_ratio[22] 	0.011084718923199
scalar tree_4_3_u08_r4_network.node[23].core_layer 	interests[23] 	13050
scalar tree_4_3_u08_r4_network.node[23].core_layer 	data[23] 	8929
scalar tree_4_3_u08_r4_network.node[23].content_store 	p_hit[23] 	0.31578544061303
scalar tree_4_3_u08_r4_network.node[23].content_store 	hits[23] 	4121
scalar tree_4_3_u08_r4_network.node[23].content_store 	misses[23] 	8929
scalar tree_4_3_u08_r4_network.node[23].content_store 	decision_yes[23] 	128
scalar tree_4_3_u08_r4_network.node[23].content_store 	decision_no[23] 	8801
scalar tree_4_3_u08_r4_network.node[23].content_store 	decision_ratio[23] 	0.014335311905029
scalar tree_4_3_u08_r4_network.node[24].core_layer 	interests[24] 	12923
scalar tree_4_3_u08_r4_network.node[24].core_layer 	data[24] 	8800
scalar tree_4_3_u08_r4_network.node[24].content_store 	p_hit[24] 	0.31904356573551
scalar tree_4_3_u08_r4_network.node[24].content_store 	hits[24] 	4123
scalar tree_4_3_u08_r4_network.node[24].content_store 	misses[24] 	8800
scalar tree_4_3_u08_r4_network.node[24].content_store 	decision_yes[24] 	117
scalar tree_4_3_u08_r4_network.node[24].content_store 	decision_no[24] 	8683
scalar tree_4_3_u08_r4_network.node[24].content_store 	decision_ratio[24] 	0.013295454545455
scalar tree_4_3_u08_r4_network.node[25].core_layer 	interests[25] 	13008
scalar tree_4_3_u08_r4_network.node[25].core_layer 	data[25] 	8940
scalar tree_4_3_u08_r4_network.node[25].content_store 	p_hit[25] 	0.31273062730627
scalar tree_4_3_u08_r4_network.node[25].content_store 	hits[25] 	4068
scalar tree_4_3_u08_r4_network.node[25].content_store 	misses[25] 	8940
scalar tree_4_3_u08_r4_network.node[25].content_store 	decision_yes[25] 	128
scalar tree_4_3_u08_r4_network.node[25].content_store 	decision_no[25] 	8812
scalar tree_4_3_u08_r4_network.node[25].content_store 	decision_ratio[25] 	0.014317673378076
scalar tree_4_3_u08_r4_network.node[26].core_layer 	interests[26] 	12484
scalar tree_4_3_u08_r4_network.node[26].core_layer 	data[26] 	8853
scalar tree_4_3_u08_r4_network.node[26].content_store 	p_hit[26] 	0.29085229093239
scalar tree_4_3_u08_r4_network.node[26].content_store 	hits[26] 	3631
scalar tree_4_3_u08_r4_network.node[26].content_store 	misses[26] 	8853
scalar tree_4_3_u08_r4_network.node[26].content_store 	decision_yes[26] 	104
scalar tree_4_3_u08_r4_network.node[26].content_store 	decision_no[26] 	8749
scalar tree_4_3_u08_r4_network.node[26].content_store 	decision_ratio[26] 	0.011747430249633
scalar tree_4_3_u08_r4_network.node[27].core_layer 	interests[27] 	12880
scalar tree_4_3_u08_r4_network.node[27].core_layer 	data[27] 	8899
scalar tree_4_3_u08_r4_network.node[27].content_store 	p_hit[27] 	0.30908385093168
scalar tree_4_3_u08_r4_network.node[27].content_store 	hits[27] 	3981
scalar tree_4_3_u08_r4_network.node[27].content_store 	misses[27] 	8899
scalar tree_4_3_u08_r4_network.node[27].content_store 	decision_yes[27] 	116
scalar tree_4_3_u08_r4_network.node[27].content_store 	decision_no[27] 	8783
scalar tree_4_3_u08_r4_network.node[27].content_store 	decision_ratio[27] 	0.013035172491291
scalar tree_4_3_u08_r4_network.node[28].core_layer 	interests[28] 	12871
scalar tree_4_3_u08_r4_network.node[28].core_layer 	data[28] 	8870
scalar tree_4_3_u08_r4_network.node[28].content_store 	p_hit[28] 	0.31085385750913
scalar tree_4_3_u08_r4_network.node[28].content_store 	hits[28] 	4001
scalar tree_4_3_u08_r4_network.node[28].content_store 	misses[28] 	8870
scalar tree_4_3_u08_r4_network.node[28].content_store 	decision_yes[28] 	105
scalar tree_4_3_u08_r4_network.node[28].content_store 	decision_no[28] 	8765
scalar tree_4_3_u08_r4_network.node[28].content_store 	decision_ratio[28] 	0.011837655016911
scalar tree_4_3_u08_r4_network.node[29].core_layer 	interests[29] 	12845
scalar tree_4_3_u08_r4_network.node[29].core_layer 	data[29] 	8794
scalar tree_4_3_u08_r4_network.node[29].content_store 	p_hit[29] 	0.31537563254185
scalar tree_4_3_u08_r4_network.node[29].content_store 	hits[29] 	4051
scalar tree_4_3_u08_r4_network.node[29].content_store 	misses[29] 	8794
scalar tree_4_3_u08_r4_network.node[29].content_store 	decision_yes[29] 	97
scalar tree_4_3_u08_r4_network.node[29].content_store 	decision_no[29] 	8697
scalar tree_4_3_u08_r4_network.node[29].content_store 	decision_ratio[29] 	0.011030247896293
scalar tree_4_3_u08_r4_network.node[30].core_layer 	interests[30] 	12199
scalar tree_4_3_u08_r4_network.node[30].core_layer 	data[30] 	8830
scalar tree_4_3_u08_r4_network.node[30].content_store 	p_hit[30] 	0.27617017788343
scalar tree_4_3_u08_r4_network.node[30].content_store 	hits[30] 	3369
scalar tree_4_3_u08_r4_network.node[30].content_store 	misses[30] 	8830
scalar tree_4_3_u08_r4_network.node[30].content_store 	decision_yes[30] 	115
scalar tree_4_3_u08_r4_network.node[30].content_store 	decision_no[30] 	8715
scalar tree_4_3_u08_r4_network.node[30].content_store 	decision_ratio[30] 	0.013023782559456
scalar tree_4_3_u08_r4_network.node[31].core_layer 	interests[31] 	12695
scalar tree_4_3_u08_r4_network.node[31].core_layer 	data[31] 	8891
scalar tree_4_3_u08_r4_network.node[31].content_store 	p_hit[31] 	0.29964552973612
scalar tree_4_3_u08_r4_network.node[31].content_store 	hits[31] 	3804
scalar tree_4_3_u08_r4_network.node[31].content_store 	misses[31] 	8891
scalar tree_4_3_u08_r4_network.node[31].content_store 	decision_yes[31] 	108
scalar tree_4_3_u08_r4_network.node[31].content_store 	decision_no[31] 	8783
scalar tree_4_3_u08_r4_network.node[31].content_store 	decision_ratio[31] 	0.012147115060173
scalar tree_4_3_u08_r4_network.node[32].core_layer 	interests[32] 	13056
scalar tree_4_3_u08_r4_network.node[32].core_layer 	data[32] 	8816
scalar tree_4_3_u08_r4_network.node[32].content_store 	p_hit[32] 	0.32483149509804
scalar tree_4_3_u08_r4_network.node[32].content_store 	hits[32] 	4241
scalar tree_4_3_u08_r4_network.node[32].content_store 	misses[32] 	8815
scalar tree_4_3_u08_r4_network.node[32].content_store 	decision_yes[32] 	152
scalar tree_4_3_u08_r4_network.node[32].content_store 	decision_no[32] 	8664
scalar tree_4_3_u08_r4_network.node[32].content_store 	decision_ratio[32] 	0.017241379310345
scalar tree_4_3_u08_r4_network.node[33].core_layer 	interests[33] 	12649
scalar tree_4_3_u08_r4_network.node[33].core_layer 	data[33] 	8922
scalar tree_4_3_u08_r4_network.node[33].content_store 	p_hit[33] 	0.29456874061191
scalar tree_4_3_u08_r4_network.node[33].content_store 	hits[33] 	3726
scalar tree_4_3_u08_r4_network.node[33].content_store 	misses[33] 	8923
scalar tree_4_3_u08_r4_network.node[33].content_store 	decision_yes[33] 	126
scalar tree_4_3_u08_r4_network.node[33].content_store 	decision_no[33] 	8796
scalar tree_4_3_u08_r4_network.node[33].content_store 	decision_ratio[33] 	0.014122394082044
scalar tree_4_3_u08_r4_network.node[34].core_layer 	interests[34] 	12794
scalar tree_4_3_u08_r4_network.node[34].core_layer 	data[34] 	8645
scalar tree_4_3_u08_r4_network.node[34].content_store 	p_hit[34] 	0.32429263717368
scalar tree_4_3_u08_r4_network.node[34].content_store 	hits[34] 	4149
scalar tree_4_3_u08_r4_network.node[34].content_store 	misses[34] 	8645
scalar tree_4_3_u08_r4_network.node[34].content_store 	decision_yes[34] 	94
scalar tree_4_3_u08_r4_network.node[34].content_store 	decision_no[34] 	8551
scalar tree_4_3_u08_r4_network.node[34].content_store 	decision_ratio[34] 	0.010873337189127
scalar tree_4_3_u08_r4_network.node[35].core_layer 	interests[35] 	12250
scalar tree_4_3_u08_r4_network.node[35].core_layer 	data[35] 	8716
scalar tree_4_3_u08_r4_network.node[35].content_store 	p_hit[35] 	0.28840816326531
scalar tree_4_3_u08_r4_network.node[35].content_store 	hits[35] 	3533
scalar tree_4_3_u08_r4_network.node[35].content_store 	misses[35] 	8717
scalar tree_4_3_u08_r4_network.node[35].content_store 	decision_yes[35] 	105
scalar tree_4_3_u08_r4_network.node[35].content_store 	decision_no[35] 	8611
scalar tree_4_3_u08_r4_network.node[35].content_store 	decision_ratio[35] 	0.012046810463515
scalar tree_4_3_u08_r4_network.node[36].core_layer 	interests[36] 	12609
scalar tree_4_3_u08_r4_network.node[36].core_layer 	data[36] 	8743
scalar tree_4_3_u08_r4_network.node[36].content_store 	p_hit[36] 	0.3066063922595
scalar tree_4_3_u08_r4_network.node[36].content_store 	hits[36] 	3866
scalar tree_4_3_u08_r4_network.node[36].content_store 	misses[36] 	8743
scalar tree_4_3_u08_r4_network.node[36].content_store 	decision_yes[36] 	116
scalar tree_4_3_u08_r4_network.node[36].content_store 	decision_no[36] 	8627
scalar tree_4_3_u08_r4_network.node[36].content_store 	decision_ratio[36] 	0.013267757062793
scalar tree_4_3_u08_r4_network.node[37].core_layer 	interests[37] 	13029
scalar tree_4_3_u08_r4_network.node[37].core_layer 	data[37] 	8852
scalar tree_4_3_u08_r4_network.node[37].content_store 	p_hit[37] 	0.32059252436872
scalar tree_4_3_u08_r4_network.node[37].content_store 	hits[37] 	4177
scalar tree_4_3_u08_r4_network.node[37].content_store 	misses[37] 	8852
scalar tree_4_3_u08_r4_network.node[37].content_store 	decision_yes[37] 	109
scalar tree_4_3_u08_r4_network.node[37].content_store 	decision_no[37] 	8743
scalar tree_4_3_u08_r4_network.node[37].content_store 	decision_ratio[37] 	0.012313601446001
scalar tree_4_3_u08_r4_network.node[38].core_layer 	interests[38] 	12823
scalar tree_4_3_u08_r4_network.node[38].core_layer 	data[38] 	8893
scalar tree_4_3_u08_r4_network.node[38].content_store 	p_hit[38] 	0.3064805427747
scalar tree_4_3_u08_r4_network.node[38].content_store 	hits[38] 	3930
scalar tree_4_3_u08_r4_network.node[38].content_store 	misses[38] 	8893
scalar tree_4_3_u08_r4_network.node[38].content_store 	decision_yes[38] 	129
scalar tree_4_3_u08_r4_network.node[38].content_store 	decision_no[38] 	8764
scalar tree_4_3_u08_r4_network.node[38].content_store 	decision_ratio[38] 	0.014505791071629
scalar tree_4_3_u08_r4_network.node[39].core_layer 	interests[39] 	12113
scalar tree_4_3_u08_r4_network.node[39].core_layer 	data[39] 	8736
scalar tree_4_3_u08_r4_network.node[39].content_store 	p_hit[39] 	0.27879138116074
scalar tree_4_3_u08_r4_network.node[39].content_store 	hits[39] 	3377
scalar tree_4_3_u08_r4_network.node[39].content_store 	misses[39] 	8736
scalar tree_4_3_u08_r4_network.node[39].content_store 	decision_yes[39] 	112
scalar tree_4_3_u08_r4_network.node[39].content_store 	decision_no[39] 	8624
scalar tree_4_3_u08_r4_network.node[39].content_store 	decision_ratio[39] 	0.012820512820513
scalar tree_4_3_u08_r4_network.client[13] 	hdistance[13] 	2.7006295559973
scalar tree_4_3_u08_r4_network.client[13] 	downloads[13] 	12072
scalar tree_4_3_u08_r4_network.client[13] 	avg_time[13] 	0.004244364102
scalar tree_4_3_u08_r4_network.client[14] 	hdistance[14] 	2.5630105017503
scalar tree_4_3_u08_r4_network.client[14] 	downloads[14] 	11998
scalar tree_4_3_u08_r4_network.client[14] 	avg_time[14] 	0.004031596854
scalar tree_4_3_u08_r4_network.client[15] 	hdistance[15] 	2.6060330578512
scalar tree_4_3_u08_r4_network.client[15] 	downloads[15] 	12100
scalar tree_4_3_u08_r4_network.client[15] 	avg_time[15] 	0.004075858969
scalar tree_4_3_u08_r4_network.client[16] 	hdistance[16] 	2.6031957390147
scalar tree_4_3_u08_r4_network.client[16] 	downloads[16] 	12016
scalar tree_4_3_u08_r4_network.client[16] 	avg_time[16] 	0.004097034326
scalar tree_4_3_u08_r4_network.client[17] 	hdistance[17] 	2.6175453047776
scalar tree_4_3_u08_r4_network.client[17] 	downloads[17] 	12140
scalar tree_4_3_u08_r4_network.client[17] 	avg_time[17] 	0.004139700411
scalar tree_4_3_u08_r4_network.client[18] 	hdistance[18] 	2.5804442948502
scalar tree_4_3_u08_r4_network.client[18] 	downloads[18] 	11884
scalar tree_4_3_u08_r4_network.client[18] 	avg_time[18] 	0.004056824973
scalar tree_4_3_u08_r4_network.client[19] 	hdistance[19] 	2.6771014492754
scalar tree_4_3_u08_r4_network.client[19] 	downloads[19] 	12075
scalar tree_4_3_u08_r4_network.client[19] 	avg_time[19] 	0.004202564259
scalar tree_4_3_u08_r4_network.client[20] 	hdistance[20] 	2.5985145622966
scalar tree_4_3_u08_r4_network.client[20] 	downloads[20] 	11983
scalar tree_4_3_u08_r4_network.client[20] 	avg_time[20] 	0.004083114727
scalar tree_4_3_u08_r4_network.client[21] 	hdistance[21] 	2.6427208627126
scalar tree_4_3_u08_r4_network.client[21] 	downloads[21] 	12055
scalar tree_4_3_u08_r4_network.client[21] 	avg_time[21] 	0.004154455687
scalar tree_4_3_u08_r4_network.client[22] 	hdistance[22] 	2.6442651584463
scalar tree_4_3_u08_r4_network.client[22] 	downloads[22] 	12023
scalar tree_4_3_u08_r4_network.client[22] 	avg_time[22] 	0.004172258867
scalar tree_4_3_u08_r4_network.client[23] 	hdistance[23] 	2.6059743954481
scalar tree_4_3_u08_r4_network.client[23] 	downloads[23] 	11951
scalar tree_4_3_u08_r4_network.client[23] 	avg_time[23] 	0.004102582612
scalar tree_4_3_u08_r4_network.client[24] 	hdistance[24] 	2.5827974947808
scalar tree_4_3_u08_r4_network.client[24] 	downloads[24] 	11975
scalar tree_4_3_u08_r4_network.client[24] 	avg_time[24] 	0.004056627323
scalar tree_4_3_u08_r4_network.client[25] 	hdistance[25] 	2.5981215194082
scalar tree_4_3_u08_r4_network.client[25] 	downloads[25] 	12031
scalar tree_4_3_u08_r4_network.client[25] 	avg_time[25] 	0.004089266365
scalar tree_4_3_u08_r4_network.client[26] 	hdistance[26] 	2.6705950701303
scalar tree_4_3_u08_r4_network.client[26] 	downloads[26] 	12049
scalar tree_4_3_u08_r4_network.client[26] 	avg_time[26] 	0.00418341469
scalar tree_4_3_u08_r4_network.client[27] 	hdistance[27] 	2.6088759850684
scalar tree_4_3_u08_r4_network.client[27] 	downloads[27] 	12055
scalar tree_4_3_u08_r4_network.client[27] 	avg_time[27] 	0.004073991185
scalar tree_4_3_u08_r4_network.client[28] 	hdistance[28] 	2.6050257188633
scalar tree_4_3_u08_r4_network.client[28] 	downloads[28] 	11859
scalar tree_4_3_u08_r4_network.client[28] 	avg_time[28] 	0.004103715751
scalar tree_4_3_u08_r4_network.client[29] 	hdistance[29] 	2.5807714737982
scalar tree_4_3_u08_r4_network.client[29] 	downloads[29] 	12003
scalar tree_4_3_u08_r4_network.client[29] 	avg_time[29] 	0.004035274747
scalar tree_4_3_u08_r4_network.client[30] 	hdistance[30] 	2.6793637505232
scalar tree_4_3_u08_r4_network.client[30] 	downloads[30] 	11945
scalar tree_4_3_u08_r4_network.client[30] 	avg_time[30] 	0.004204266587
scalar tree_4_3_u08_r4_network.client[31] 	hdistance[31] 	2.66057484632
scalar tree_4_3_u08_r4_network.client[31] 	downloads[31] 	12038
scalar tree_4_3_u08_r4_network.client[31] 	avg_time[31] 	0.004182253176
scalar tree_4_3_u08_r4_network.client[32] 	hdistance[32] 	2.5654079568442
scalar tree_4_3_u08_r4_network.client[32] 	downloads[32] 	11864
scalar tree_4_3_u08_r4_network.client[32] 	avg_time[32] 	0.004045243766
scalar tree_4_3_u08_r4_network.client[33] 	hdistance[33] 	2.641223272004
scalar tree_4_3_u08_r4_network.client[33] 	downloads[33] 	12066
scalar tree_4_3_u08_r4_network.client[33] 	avg_time[33] 	0.004167820668
scalar tree_4_3_u08_r4_network.client[34] 	hdistance[34] 	2.5741279069768
scalar tree_4_3_u08_r4_network.client[34] 	downloads[34] 	11696
scalar tree_4_3_u08_r4_network.client[34] 	avg_time[34] 	0.00405118046
scalar tree_4_3_u08_r4_network.client[35] 	hdistance[35] 	2.6325962187711
scalar tree_4_3_u08_r4_network.client[35] 	downloads[35] 	11848
scalar tree_4_3_u08_r4_network.client[35] 	avg_time[35] 	0.004144515001
scalar tree_4_3_u08_r4_network.client[36] 	hdistance[36] 	2.5884589388307
scalar tree_4_3_u08_r4_network.client[36] 	downloads[36] 	11836
scalar tree_4_3_u08_r4_network.client[36] 	avg_time[36] 	0.00405930763
scalar tree_4_3_u08_r4_network.client[37] 	hdistance[37] 	2.5840583312619
scalar tree_4_3_u08_r4_network.client[37] 	downloads[37] 	12069
scalar tree_4_3_u08_r4_network.client[37] 	avg_time[37] 	0.004050871114
scalar tree_4_3_u08_r4_network.client[38] 	hdistance[38] 	2.5728547854785
scalar tree_4_3_u08_r4_network.client[38] 	downloads[38] 	12120
scalar tree_4_3_u08_r4_network.client[38] 	avg_time[38] 	0.004037455725
scalar tree_4_3_u08_r4_network.client[39] 	hdistance[39] 	2.6788278510603
scalar tree_4_3_u08_r4_network.client[39] 	downloads[39] 	11978
scalar tree_4_3_u08_r4_network.client[39] 	avg_time[39] 	0.004157953263
