version 2
run General-510-20160901-11:44:13-8710
attr a 0.9
attr cd ffc
attr configname General
attr cr lru
attr datetime 20160901-11:44:13
attr experiment General
attr fsize 1
attr inifile hw5115/scenario_Y/omnetp.ini
attr iterationvars "$name=tree_4_3, $un=08, $rep=11, $cd=ffc, $cr=lru, $fsize=1, $a=0.9, $sl=nrr, $ttl=1000, $variance=0.05"
attr iterationvars2 "$name=tree_4_3, $un=08, $rep=11, $cd=ffc, $cr=lru, $fsize=1, $a=0.9, $sl=nrr, $ttl=1000, $variance=0.05, $repetition=0"
attr measurement "$name=tree_4_3, $un=08, $rep=11, $cd=ffc, $cr=lru, $fsize=1, $a=0.9, $sl=nrr, $ttl=1000, $variance=0.05"
attr name tree_4_3
attr network networks.${name}_u${un}_r${rep}_network
attr processid 8710
attr rep 11
attr repetition 0
attr replication #0
attr resultdir results
attr runnumber 510
attr seedset 11
attr sl nrr
attr ttl 1000
attr un 08
attr variance 0.05

scalar . 	a 	0.9
scalar . 	fsize 	1
scalar . 	rep 	11
scalar . 	ttl 	1000
scalar . 	un 	08
scalar . 	variance 	0.05
scalar tree_4_3_u08_r11_network.content_distribution 	repo-0 	0
scalar tree_4_3_u08_r11_network.content_distribution 	client-0 	13
scalar tree_4_3_u08_r11_network.content_distribution 	client-1 	14
scalar tree_4_3_u08_r11_network.content_distribution 	client-2 	15
scalar tree_4_3_u08_r11_network.content_distribution 	client-3 	16
scalar tree_4_3_u08_r11_network.content_distribution 	client-4 	17
scalar tree_4_3_u08_r11_network.content_distribution 	client-5 	18
scalar tree_4_3_u08_r11_network.content_distribution 	client-6 	19
scalar tree_4_3_u08_r11_network.content_distribution 	client-7 	20
scalar tree_4_3_u08_r11_network.content_distribution 	client-8 	21
scalar tree_4_3_u08_r11_network.content_distribution 	client-9 	22
scalar tree_4_3_u08_r11_network.content_distribution 	client-10 	23
scalar tree_4_3_u08_r11_network.content_distribution 	client-11 	24
scalar tree_4_3_u08_r11_network.content_distribution 	client-12 	25
scalar tree_4_3_u08_r11_network.content_distribution 	client-13 	26
scalar tree_4_3_u08_r11_network.content_distribution 	client-14 	27
scalar tree_4_3_u08_r11_network.content_distribution 	client-15 	28
scalar tree_4_3_u08_r11_network.content_distribution 	client-16 	29
scalar tree_4_3_u08_r11_network.content_distribution 	client-17 	30
scalar tree_4_3_u08_r11_network.content_distribution 	client-18 	31
scalar tree_4_3_u08_r11_network.content_distribution 	client-19 	32
scalar tree_4_3_u08_r11_network.content_distribution 	client-20 	33
scalar tree_4_3_u08_r11_network.content_distribution 	client-21 	34
scalar tree_4_3_u08_r11_network.content_distribution 	client-22 	35
scalar tree_4_3_u08_r11_network.content_distribution 	client-23 	36
scalar tree_4_3_u08_r11_network.content_distribution 	client-24 	37
scalar tree_4_3_u08_r11_network.content_distribution 	client-25 	38
scalar tree_4_3_u08_r11_network.content_distribution 	client-26 	39
scalar tree_4_3_u08_r11_network.content_distribution 	repo-0_card 	100000
scalar tree_4_3_u08_r11_network.content_distribution 	repo-0_price 	0
scalar tree_4_3_u08_r11_network.statistics 	stabilization_time 	1261.1
scalar tree_4_3_u08_r11_network.statistics 	p_hit 	0.23943136844051
scalar tree_4_3_u08_r11_network.statistics 	interests 	24668.975
scalar tree_4_3_u08_r11_network.statistics 	data 	16571.65
scalar tree_4_3_u08_r11_network.statistics 	hdistance 	2.6114142998919
scalar tree_4_3_u08_r11_network.statistics 	avg_time 	0.00409314574
scalar tree_4_3_u08_r11_network.statistics 	downloads 	323899
scalar tree_4_3_u08_r11_network.statistics 	total_cost 	0
scalar tree_4_3_u08_r11_network.statistics 	total_replicas 	100000
scalar tree_4_3_u08_r11_network.statistics 	inner_hit 	0.43515725581123
scalar tree_4_3_u08_r11_network.node[0].core_layer 	interests[0] 	185407
scalar tree_4_3_u08_r11_network.node[0].core_layer 	repo_load[0] 	182952
scalar tree_4_3_u08_r11_network.node[0].core_layer 	data[0] 	0
scalar tree_4_3_u08_r11_network.node[0].core_layer 	repo_int[0] 	182952
scalar tree_4_3_u08_r11_network.node[0].content_store 	p_hit[0] 	0.013241139762792
scalar tree_4_3_u08_r11_network.node[0].content_store 	hits[0] 	2455
scalar tree_4_3_u08_r11_network.node[0].content_store 	misses[0] 	182952
scalar tree_4_3_u08_r11_network.node[0].content_store 	decision_yes[0] 	754
scalar tree_4_3_u08_r11_network.node[0].content_store 	decision_no[0] 	182198
scalar tree_4_3_u08_r11_network.node[0].content_store 	decision_ratio[0] 	0.004121299575845
scalar tree_4_3_u08_r11_network.node[1].core_layer 	interests[1] 	100851
scalar tree_4_3_u08_r11_network.node[1].core_layer 	data[1] 	99137
scalar tree_4_3_u08_r11_network.node[1].content_store 	p_hit[1] 	0.017005285024442
scalar tree_4_3_u08_r11_network.node[1].content_store 	hits[1] 	1715
scalar tree_4_3_u08_r11_network.node[1].content_store 	misses[1] 	99136
scalar tree_4_3_u08_r11_network.node[1].content_store 	decision_yes[1] 	455
scalar tree_4_3_u08_r11_network.node[1].content_store 	decision_no[1] 	98681
scalar tree_4_3_u08_r11_network.node[1].content_store 	decision_ratio[1] 	0.0045896546158812
scalar tree_4_3_u08_r11_network.node[2].core_layer 	interests[2] 	63321
scalar tree_4_3_u08_r11_network.node[2].core_layer 	data[2] 	60575
scalar tree_4_3_u08_r11_network.node[2].content_store 	p_hit[2] 	0.043350547211825
scalar tree_4_3_u08_r11_network.node[2].content_store 	hits[2] 	2745
scalar tree_4_3_u08_r11_network.node[2].content_store 	misses[2] 	60576
scalar tree_4_3_u08_r11_network.node[2].content_store 	decision_yes[2] 	397
scalar tree_4_3_u08_r11_network.node[2].content_store 	decision_no[2] 	60178
scalar tree_4_3_u08_r11_network.node[2].content_store 	decision_ratio[2] 	0.006553858852662
scalar tree_4_3_u08_r11_network.node[3].core_layer 	interests[3] 	42179
scalar tree_4_3_u08_r11_network.node[3].core_layer 	data[3] 	39709
scalar tree_4_3_u08_r11_network.node[3].content_store 	p_hit[3] 	0.058559946893004
scalar tree_4_3_u08_r11_network.node[3].content_store 	hits[3] 	2470
scalar tree_4_3_u08_r11_network.node[3].content_store 	misses[3] 	39709
scalar tree_4_3_u08_r11_network.node[3].content_store 	decision_yes[3] 	309
scalar tree_4_3_u08_r11_network.node[3].content_store 	decision_no[3] 	39400
scalar tree_4_3_u08_r11_network.node[3].content_store 	decision_ratio[3] 	0.0077816112216374
scalar tree_4_3_u08_r11_network.node[4].core_layer 	interests[4] 	41293
scalar tree_4_3_u08_r11_network.node[4].core_layer 	data[4] 	38796
scalar tree_4_3_u08_r11_network.node[4].content_store 	p_hit[4] 	0.060470297629138
scalar tree_4_3_u08_r11_network.node[4].content_store 	hits[4] 	2497
scalar tree_4_3_u08_r11_network.node[4].content_store 	misses[4] 	38796
scalar tree_4_3_u08_r11_network.node[4].content_store 	decision_yes[4] 	263
scalar tree_4_3_u08_r11_network.node[4].content_store 	decision_no[4] 	38533
scalar tree_4_3_u08_r11_network.node[4].content_store 	decision_ratio[4] 	0.0067790493865347
scalar tree_4_3_u08_r11_network.node[5].core_layer 	interests[5] 	20427
scalar tree_4_3_u08_r11_network.node[5].core_layer 	data[5] 	17503
scalar tree_4_3_u08_r11_network.node[5].content_store 	p_hit[5] 	0.14314387820042
scalar tree_4_3_u08_r11_network.node[5].content_store 	hits[5] 	2924
scalar tree_4_3_u08_r11_network.node[5].content_store 	misses[5] 	17503
scalar tree_4_3_u08_r11_network.node[5].content_store 	decision_yes[5] 	252
scalar tree_4_3_u08_r11_network.node[5].content_store 	decision_no[5] 	17251
scalar tree_4_3_u08_r11_network.node[5].content_store 	decision_ratio[5] 	0.014397531851683
scalar tree_4_3_u08_r11_network.node[6].core_layer 	interests[6] 	22680
scalar tree_4_3_u08_r11_network.node[6].core_layer 	data[6] 	19268
scalar tree_4_3_u08_r11_network.node[6].content_store 	p_hit[6] 	0.15044091710758
scalar tree_4_3_u08_r11_network.node[6].content_store 	hits[6] 	3412
scalar tree_4_3_u08_r11_network.node[6].content_store 	misses[6] 	19268
scalar tree_4_3_u08_r11_network.node[6].content_store 	decision_yes[6] 	375
scalar tree_4_3_u08_r11_network.node[6].content_store 	decision_no[6] 	18893
scalar tree_4_3_u08_r11_network.node[6].content_store 	decision_ratio[6] 	0.019462320946647
scalar tree_4_3_u08_r11_network.node[7].core_layer 	interests[7] 	43865
scalar tree_4_3_u08_r11_network.node[7].core_layer 	data[7] 	40689
scalar tree_4_3_u08_r11_network.node[7].content_store 	p_hit[7] 	0.072403966716061
scalar tree_4_3_u08_r11_network.node[7].content_store 	hits[7] 	3176
scalar tree_4_3_u08_r11_network.node[7].content_store 	misses[7] 	40689
scalar tree_4_3_u08_r11_network.node[7].content_store 	decision_yes[7] 	311
scalar tree_4_3_u08_r11_network.node[7].content_store 	decision_no[7] 	40378
scalar tree_4_3_u08_r11_network.node[7].content_store 	decision_ratio[7] 	0.0076433434097668
scalar tree_4_3_u08_r11_network.node[8].core_layer 	interests[8] 	27779
scalar tree_4_3_u08_r11_network.node[8].core_layer 	data[8] 	24955
scalar tree_4_3_u08_r11_network.node[8].content_store 	p_hit[8] 	0.10169552539688
scalar tree_4_3_u08_r11_network.node[8].content_store 	hits[8] 	2825
scalar tree_4_3_u08_r11_network.node[8].content_store 	misses[8] 	24954
scalar tree_4_3_u08_r11_network.node[8].content_store 	decision_yes[8] 	222
scalar tree_4_3_u08_r11_network.node[8].content_store 	decision_no[8] 	24733
scalar tree_4_3_u08_r11_network.node[8].content_store 	decision_ratio[8] 	0.0088960128230815
scalar tree_4_3_u08_r11_network.node[9].core_layer 	interests[9] 	12453
scalar tree_4_3_u08_r11_network.node[9].core_layer 	data[9] 	9252
scalar tree_4_3_u08_r11_network.node[9].content_store 	p_hit[9] 	0.25704649482053
scalar tree_4_3_u08_r11_network.node[9].content_store 	hits[9] 	3201
scalar tree_4_3_u08_r11_network.node[9].content_store 	misses[9] 	9252
scalar tree_4_3_u08_r11_network.node[9].content_store 	decision_yes[9] 	166
scalar tree_4_3_u08_r11_network.node[9].content_store 	decision_no[9] 	9086
scalar tree_4_3_u08_r11_network.node[9].content_store 	decision_ratio[9] 	0.017942066580199
scalar tree_4_3_u08_r11_network.node[10].core_layer 	interests[10] 	36254
scalar tree_4_3_u08_r11_network.node[10].core_layer 	data[10] 	33782
scalar tree_4_3_u08_r11_network.node[10].content_store 	p_hit[10] 	0.06818557952226
scalar tree_4_3_u08_r11_network.node[10].content_store 	hits[10] 	2472
scalar tree_4_3_u08_r11_network.node[10].content_store 	misses[10] 	33782
scalar tree_4_3_u08_r11_network.node[10].content_store 	decision_yes[10] 	325
scalar tree_4_3_u08_r11_network.node[10].content_store 	decision_no[10] 	33457
scalar tree_4_3_u08_r11_network.node[10].content_store 	decision_ratio[10] 	0.0096205079628204
scalar tree_4_3_u08_r11_network.node[11].core_layer 	interests[11] 	35420
scalar tree_4_3_u08_r11_network.node[11].core_layer 	data[11] 	32253
scalar tree_4_3_u08_r11_network.node[11].content_store 	p_hit[11] 	0.089356295878035
scalar tree_4_3_u08_r11_network.node[11].content_store 	hits[11] 	3165
scalar tree_4_3_u08_r11_network.node[11].content_store 	misses[11] 	32255
scalar tree_4_3_u08_r11_network.node[11].content_store 	decision_yes[11] 	289
scalar tree_4_3_u08_r11_network.node[11].content_store 	decision_no[11] 	31964
scalar tree_4_3_u08_r11_network.node[11].content_store 	decision_ratio[11] 	0.0089604067838651
scalar tree_4_3_u08_r11_network.node[12].core_layer 	interests[12] 	11810
scalar tree_4_3_u08_r11_network.node[12].core_layer 	data[12] 	8978
scalar tree_4_3_u08_r11_network.node[12].content_store 	p_hit[12] 	0.23979678238781
scalar tree_4_3_u08_r11_network.node[12].content_store 	hits[12] 	2832
scalar tree_4_3_u08_r11_network.node[12].content_store 	misses[12] 	8978
scalar tree_4_3_u08_r11_network.node[12].content_store 	decision_yes[12] 	183
scalar tree_4_3_u08_r11_network.node[12].content_store 	decision_no[12] 	8795
scalar tree_4_3_u08_r11_network.node[12].content_store 	decision_ratio[12] 	0.020383158832702
scalar tree_4_3_u08_r11_network.node[13].core_layer 	interests[13] 	12431
scalar tree_4_3_u08_r11_network.node[13].core_layer 	data[13] 	8738
scalar tree_4_3_u08_r11_network.node[13].content_store 	p_hit[13] 	0.2970798809428
scalar tree_4_3_u08_r11_network.node[13].content_store 	hits[13] 	3693
scalar tree_4_3_u08_r11_network.node[13].content_store 	misses[13] 	8738
scalar tree_4_3_u08_r11_network.node[13].content_store 	decision_yes[13] 	115
scalar tree_4_3_u08_r11_network.node[13].content_store 	decision_no[13] 	8623
scalar tree_4_3_u08_r11_network.node[13].content_store 	decision_ratio[13] 	0.013160906385901
scalar tree_4_3_u08_r11_network.node[14].core_layer 	interests[14] 	12904
scalar tree_4_3_u08_r11_network.node[14].core_layer 	data[14] 	8839
scalar tree_4_3_u08_r11_network.node[14].content_store 	p_hit[14] 	0.31501859888407
scalar tree_4_3_u08_r11_network.node[14].content_store 	hits[14] 	4065
scalar tree_4_3_u08_r11_network.node[14].content_store 	misses[14] 	8839
scalar tree_4_3_u08_r11_network.node[14].content_store 	decision_yes[14] 	117
scalar tree_4_3_u08_r11_network.node[14].content_store 	decision_no[14] 	8722
scalar tree_4_3_u08_r11_network.node[14].content_store 	decision_ratio[14] 	0.01323679149225
scalar tree_4_3_u08_r11_network.node[15].core_layer 	interests[15] 	13084
scalar tree_4_3_u08_r11_network.node[15].core_layer 	data[15] 	8751
scalar tree_4_3_u08_r11_network.node[15].content_store 	p_hit[15] 	0.33116783858147
scalar tree_4_3_u08_r11_network.node[15].content_store 	hits[15] 	4333
scalar tree_4_3_u08_r11_network.node[15].content_store 	misses[15] 	8751
scalar tree_4_3_u08_r11_network.node[15].content_store 	decision_yes[15] 	112
scalar tree_4_3_u08_r11_network.node[15].content_store 	decision_no[15] 	8639
scalar tree_4_3_u08_r11_network.node[15].content_store 	decision_ratio[15] 	0.012798537310022
scalar tree_4_3_u08_r11_network.node[16].core_layer 	interests[16] 	12867
scalar tree_4_3_u08_r11_network.node[16].core_layer 	data[16] 	8884
scalar tree_4_3_u08_r11_network.node[16].content_store 	p_hit[16] 	0.30955156602161
scalar tree_4_3_u08_r11_network.node[16].content_store 	hits[16] 	3983
scalar tree_4_3_u08_r11_network.node[16].content_store 	misses[16] 	8884
scalar tree_4_3_u08_r11_network.node[16].content_store 	decision_yes[16] 	91
scalar tree_4_3_u08_r11_network.node[16].content_store 	decision_no[16] 	8793
scalar tree_4_3_u08_r11_network.node[16].content_store 	decision_ratio[16] 	0.010243133723548
scalar tree_4_3_u08_r11_network.node[17].core_layer 	interests[17] 	12172
scalar tree_4_3_u08_r11_network.node[17].core_layer 	data[17] 	8650
scalar tree_4_3_u08_r11_network.node[17].content_store 	p_hit[17] 	0.2893526125534
scalar tree_4_3_u08_r11_network.node[17].content_store 	hits[17] 	3522
scalar tree_4_3_u08_r11_network.node[17].content_store 	misses[17] 	8650
scalar tree_4_3_u08_r11_network.node[17].content_store 	decision_yes[17] 	111
scalar tree_4_3_u08_r11_network.node[17].content_store 	decision_no[17] 	8539
scalar tree_4_3_u08_r11_network.node[17].content_store 	decision_ratio[17] 	0.012832369942197
scalar tree_4_3_u08_r11_network.node[18].core_layer 	interests[18] 	13058
scalar tree_4_3_u08_r11_network.node[18].core_layer 	data[18] 	8876
scalar tree_4_3_u08_r11_network.node[18].content_store 	p_hit[18] 	0.32026344003676
scalar tree_4_3_u08_r11_network.node[18].content_store 	hits[18] 	4182
scalar tree_4_3_u08_r11_network.node[18].content_store 	misses[18] 	8876
scalar tree_4_3_u08_r11_network.node[18].content_store 	decision_yes[18] 	126
scalar tree_4_3_u08_r11_network.node[18].content_store 	decision_no[18] 	8750
scalar tree_4_3_u08_r11_network.node[18].content_store 	decision_ratio[18] 	0.014195583596215
scalar tree_4_3_u08_r11_network.node[19].core_layer 	interests[19] 	13044
scalar tree_4_3_u08_r11_network.node[19].core_layer 	data[19] 	8850
scalar tree_4_3_u08_r11_network.node[19].content_store 	p_hit[19] 	0.32152713891444
scalar tree_4_3_u08_r11_network.node[19].content_store 	hits[19] 	4194
scalar tree_4_3_u08_r11_network.node[19].content_store 	misses[19] 	8850
scalar tree_4_3_u08_r11_network.node[19].content_store 	decision_yes[19] 	118
scalar tree_4_3_u08_r11_network.node[19].content_store 	decision_no[19] 	8732
scalar tree_4_3_u08_r11_network.node[19].content_store 	decision_ratio[19] 	0.013333333333333
scalar tree_4_3_u08_r11_network.node[20].core_layer 	interests[20] 	12563
scalar tree_4_3_u08_r11_network.node[20].core_layer 	data[20] 	8860
scalar tree_4_3_u08_r11_network.node[20].content_store 	p_hit[20] 	0.29475443763432
scalar tree_4_3_u08_r11_network.node[20].content_store 	hits[20] 	3703
scalar tree_4_3_u08_r11_network.node[20].content_store 	misses[20] 	8860
scalar tree_4_3_u08_r11_network.node[20].content_store 	decision_yes[20] 	129
scalar tree_4_3_u08_r11_network.node[20].content_store 	decision_no[20] 	8731
scalar tree_4_3_u08_r11_network.node[20].content_store 	decision_ratio[20] 	0.014559819413093
scalar tree_4_3_u08_r11_network.node[21].core_layer 	interests[21] 	12415
scalar tree_4_3_u08_r11_network.node[21].core_layer 	data[21] 	8673
scalar tree_4_3_u08_r11_network.node[21].content_store 	p_hit[21] 	0.30140958517922
scalar tree_4_3_u08_r11_network.node[21].content_store 	hits[21] 	3742
scalar tree_4_3_u08_r11_network.node[21].content_store 	misses[21] 	8673
scalar tree_4_3_u08_r11_network.node[21].content_store 	decision_yes[21] 	109
scalar tree_4_3_u08_r11_network.node[21].content_store 	decision_no[21] 	8564
scalar tree_4_3_u08_r11_network.node[21].content_store 	decision_ratio[21] 	0.012567738959991
scalar tree_4_3_u08_r11_network.node[22].core_layer 	interests[22] 	12422
scalar tree_4_3_u08_r11_network.node[22].core_layer 	data[22] 	8765
scalar tree_4_3_u08_r11_network.node[22].content_store 	p_hit[22] 	0.29439703751409
scalar tree_4_3_u08_r11_network.node[22].content_store 	hits[22] 	3657
scalar tree_4_3_u08_r11_network.node[22].content_store 	misses[22] 	8765
scalar tree_4_3_u08_r11_network.node[22].content_store 	decision_yes[22] 	115
scalar tree_4_3_u08_r11_network.node[22].content_store 	decision_no[22] 	8650
scalar tree_4_3_u08_r11_network.node[22].content_store 	decision_ratio[22] 	0.01312036508842
scalar tree_4_3_u08_r11_network.node[23].core_layer 	interests[23] 	12938
scalar tree_4_3_u08_r11_network.node[23].core_layer 	data[23] 	8897
scalar tree_4_3_u08_r11_network.node[23].content_store 	p_hit[23] 	0.3123357551399
scalar tree_4_3_u08_r11_network.node[23].content_store 	hits[23] 	4041
scalar tree_4_3_u08_r11_network.node[23].content_store 	misses[23] 	8897
scalar tree_4_3_u08_r11_network.node[23].content_store 	decision_yes[23] 	108
scalar tree_4_3_u08_r11_network.node[23].content_store 	decision_no[23] 	8789
scalar tree_4_3_u08_r11_network.node[23].content_store 	decision_ratio[23] 	0.01213892323255
scalar tree_4_3_u08_r11_network.node[24].core_layer 	interests[24] 	12814
scalar tree_4_3_u08_r11_network.node[24].core_layer 	data[24] 	8829
scalar tree_4_3_u08_r11_network.node[24].content_store 	p_hit[24] 	0.3109879818948
scalar tree_4_3_u08_r11_network.node[24].content_store 	hits[24] 	3985
scalar tree_4_3_u08_r11_network.node[24].content_store 	misses[24] 	8829
scalar tree_4_3_u08_r11_network.node[24].content_store 	decision_yes[24] 	122
scalar tree_4_3_u08_r11_network.node[24].content_store 	decision_no[24] 	8707
scalar tree_4_3_u08_r11_network.node[24].content_store 	decision_ratio[24] 	0.013818099445011
scalar tree_4_3_u08_r11_network.node[25].core_layer 	interests[25] 	13093
scalar tree_4_3_u08_r11_network.node[25].core_layer 	data[25] 	8944
scalar tree_4_3_u08_r11_network.node[25].content_store 	p_hit[25] 	0.31696326281219
scalar tree_4_3_u08_r11_network.node[25].content_store 	hits[25] 	4150
scalar tree_4_3_u08_r11_network.node[25].content_store 	misses[25] 	8943
scalar tree_4_3_u08_r11_network.node[25].content_store 	decision_yes[25] 	115
scalar tree_4_3_u08_r11_network.node[25].content_store 	decision_no[25] 	8829
scalar tree_4_3_u08_r11_network.node[25].content_store 	decision_ratio[25] 	0.012857781753131
scalar tree_4_3_u08_r11_network.node[26].core_layer 	interests[26] 	12596
scalar tree_4_3_u08_r11_network.node[26].core_layer 	data[26] 	8880
scalar tree_4_3_u08_r11_network.node[26].content_store 	p_hit[26] 	0.29501429025087
scalar tree_4_3_u08_r11_network.node[26].content_store 	hits[26] 	3716
scalar tree_4_3_u08_r11_network.node[26].content_store 	misses[26] 	8880
scalar tree_4_3_u08_r11_network.node[26].content_store 	decision_yes[26] 	103
scalar tree_4_3_u08_r11_network.node[26].content_store 	decision_no[26] 	8777
scalar tree_4_3_u08_r11_network.node[26].content_store 	decision_ratio[26] 	0.011599099099099
scalar tree_4_3_u08_r11_network.node[27].core_layer 	interests[27] 	12776
scalar tree_4_3_u08_r11_network.node[27].core_layer 	data[27] 	8832
scalar tree_4_3_u08_r11_network.node[27].content_store 	p_hit[27] 	0.30878209142142
scalar tree_4_3_u08_r11_network.node[27].content_store 	hits[27] 	3945
scalar tree_4_3_u08_r11_network.node[27].content_store 	misses[27] 	8831
scalar tree_4_3_u08_r11_network.node[27].content_store 	decision_yes[27] 	106
scalar tree_4_3_u08_r11_network.node[27].content_store 	decision_no[27] 	8726
scalar tree_4_3_u08_r11_network.node[27].content_store 	decision_ratio[27] 	0.012001811594203
scalar tree_4_3_u08_r11_network.node[28].core_layer 	interests[28] 	13014
scalar tree_4_3_u08_r11_network.node[28].core_layer 	data[28] 	8920
scalar tree_4_3_u08_r11_network.node[28].content_store 	p_hit[28] 	0.31466113416321
scalar tree_4_3_u08_r11_network.node[28].content_store 	hits[28] 	4095
scalar tree_4_3_u08_r11_network.node[28].content_store 	misses[28] 	8919
scalar tree_4_3_u08_r11_network.node[28].content_store 	decision_yes[28] 	135
scalar tree_4_3_u08_r11_network.node[28].content_store 	decision_no[28] 	8785
scalar tree_4_3_u08_r11_network.node[28].content_store 	decision_ratio[28] 	0.015134529147982
scalar tree_4_3_u08_r11_network.node[29].core_layer 	interests[29] 	12977
scalar tree_4_3_u08_r11_network.node[29].core_layer 	data[29] 	8897
scalar tree_4_3_u08_r11_network.node[29].content_store 	p_hit[29] 	0.31440240425368
scalar tree_4_3_u08_r11_network.node[29].content_store 	hits[29] 	4080
scalar tree_4_3_u08_r11_network.node[29].content_store 	misses[29] 	8897
scalar tree_4_3_u08_r11_network.node[29].content_store 	decision_yes[29] 	89
scalar tree_4_3_u08_r11_network.node[29].content_store 	decision_no[29] 	8808
scalar tree_4_3_u08_r11_network.node[29].content_store 	decision_ratio[29] 	0.01000337192312
scalar tree_4_3_u08_r11_network.node[30].core_layer 	interests[30] 	12287
scalar tree_4_3_u08_r11_network.node[30].core_layer 	data[30] 	8696
scalar tree_4_3_u08_r11_network.node[30].content_store 	p_hit[30] 	0.29226011231383
scalar tree_4_3_u08_r11_network.node[30].content_store 	hits[30] 	3591
scalar tree_4_3_u08_r11_network.node[30].content_store 	misses[30] 	8696
scalar tree_4_3_u08_r11_network.node[30].content_store 	decision_yes[30] 	96
scalar tree_4_3_u08_r11_network.node[30].content_store 	decision_no[30] 	8600
scalar tree_4_3_u08_r11_network.node[30].content_store 	decision_ratio[30] 	0.011039558417663
scalar tree_4_3_u08_r11_network.node[31].core_layer 	interests[31] 	12701
scalar tree_4_3_u08_r11_network.node[31].core_layer 	data[31] 	8830
scalar tree_4_3_u08_r11_network.node[31].content_store 	p_hit[31] 	0.30477915124793
scalar tree_4_3_u08_r11_network.node[31].content_store 	hits[31] 	3871
scalar tree_4_3_u08_r11_network.node[31].content_store 	misses[31] 	8830
scalar tree_4_3_u08_r11_network.node[31].content_store 	decision_yes[31] 	83
scalar tree_4_3_u08_r11_network.node[31].content_store 	decision_no[31] 	8747
scalar tree_4_3_u08_r11_network.node[31].content_store 	decision_ratio[31] 	0.0093997734994337
scalar tree_4_3_u08_r11_network.node[32].core_layer 	interests[32] 	12640
scalar tree_4_3_u08_r11_network.node[32].core_layer 	data[32] 	8975
scalar tree_4_3_u08_r11_network.node[32].content_store 	p_hit[32] 	0.29003164556962
scalar tree_4_3_u08_r11_network.node[32].content_store 	hits[32] 	3666
scalar tree_4_3_u08_r11_network.node[32].content_store 	misses[32] 	8974
scalar tree_4_3_u08_r11_network.node[32].content_store 	decision_yes[32] 	109
scalar tree_4_3_u08_r11_network.node[32].content_store 	decision_no[32] 	8866
scalar tree_4_3_u08_r11_network.node[32].content_store 	decision_ratio[32] 	0.012144846796657
scalar tree_4_3_u08_r11_network.node[33].core_layer 	interests[33] 	12937
scalar tree_4_3_u08_r11_network.node[33].core_layer 	data[33] 	9059
scalar tree_4_3_u08_r11_network.node[33].content_store 	p_hit[33] 	0.29976037721265
scalar tree_4_3_u08_r11_network.node[33].content_store 	hits[33] 	3878
scalar tree_4_3_u08_r11_network.node[33].content_store 	misses[33] 	9059
scalar tree_4_3_u08_r11_network.node[33].content_store 	decision_yes[33] 	113
scalar tree_4_3_u08_r11_network.node[33].content_store 	decision_no[33] 	8946
scalar tree_4_3_u08_r11_network.node[33].content_store 	decision_ratio[33] 	0.012473782978254
scalar tree_4_3_u08_r11_network.node[34].core_layer 	interests[34] 	13021
scalar tree_4_3_u08_r11_network.node[34].core_layer 	data[34] 	8876
scalar tree_4_3_u08_r11_network.node[34].content_store 	p_hit[34] 	0.31833192535136
scalar tree_4_3_u08_r11_network.node[34].content_store 	hits[34] 	4145
scalar tree_4_3_u08_r11_network.node[34].content_store 	misses[34] 	8876
scalar tree_4_3_u08_r11_network.node[34].content_store 	decision_yes[34] 	129
scalar tree_4_3_u08_r11_network.node[34].content_store 	decision_no[34] 	8747
scalar tree_4_3_u08_r11_network.node[34].content_store 	decision_ratio[34] 	0.014533573681839
scalar tree_4_3_u08_r11_network.node[35].core_layer 	interests[35] 	12307
scalar tree_4_3_u08_r11_network.node[35].core_layer 	data[35] 	8592
scalar tree_4_3_u08_r11_network.node[35].content_store 	p_hit[35] 	0.30186072966604
scalar tree_4_3_u08_r11_network.node[35].content_store 	hits[35] 	3715
scalar tree_4_3_u08_r11_network.node[35].content_store 	misses[35] 	8592
scalar tree_4_3_u08_r11_network.node[35].content_store 	decision_yes[35] 	108
scalar tree_4_3_u08_r11_network.node[35].content_store 	decision_no[35] 	8484
scalar tree_4_3_u08_r11_network.node[35].content_store 	decision_ratio[35] 	0.012569832402235
scalar tree_4_3_u08_r11_network.node[36].core_layer 	interests[36] 	12655
scalar tree_4_3_u08_r11_network.node[36].core_layer 	data[36] 	8743
scalar tree_4_3_u08_r11_network.node[36].content_store 	p_hit[36] 	0.30912682734097
scalar tree_4_3_u08_r11_network.node[36].content_store 	hits[36] 	3912
scalar tree_4_3_u08_r11_network.node[36].content_store 	misses[36] 	8743
scalar tree_4_3_u08_r11_network.node[36].content_store 	decision_yes[36] 	107
scalar tree_4_3_u08_r11_network.node[36].content_store 	decision_no[36] 	8636
scalar tree_4_3_u08_r11_network.node[36].content_store 	decision_ratio[36] 	0.012238362118266
scalar tree_4_3_u08_r11_network.node[37].core_layer 	interests[37] 	12612
scalar tree_4_3_u08_r11_network.node[37].core_layer 	data[37] 	8567
scalar tree_4_3_u08_r11_network.node[37].content_store 	p_hit[37] 	0.32072629241992
scalar tree_4_3_u08_r11_network.node[37].content_store 	hits[37] 	4045
scalar tree_4_3_u08_r11_network.node[37].content_store 	misses[37] 	8567
scalar tree_4_3_u08_r11_network.node[37].content_store 	decision_yes[37] 	107
scalar tree_4_3_u08_r11_network.node[37].content_store 	decision_no[37] 	8460
scalar tree_4_3_u08_r11_network.node[37].content_store 	decision_ratio[37] 	0.012489786389635
scalar tree_4_3_u08_r11_network.node[38].core_layer 	interests[38] 	12744
scalar tree_4_3_u08_r11_network.node[38].core_layer 	data[38] 	8934
scalar tree_4_3_u08_r11_network.node[38].content_store 	p_hit[38] 	0.29888575015694
scalar tree_4_3_u08_r11_network.node[38].content_store 	hits[38] 	3809
scalar tree_4_3_u08_r11_network.node[38].content_store 	misses[38] 	8935
scalar tree_4_3_u08_r11_network.node[38].content_store 	decision_yes[38] 	116
scalar tree_4_3_u08_r11_network.node[38].content_store 	decision_no[38] 	8818
scalar tree_4_3_u08_r11_network.node[38].content_store 	decision_ratio[38] 	0.012984105663756
scalar tree_4_3_u08_r11_network.node[39].core_layer 	interests[39] 	11948
scalar tree_4_3_u08_r11_network.node[39].core_layer 	data[39] 	8612
scalar tree_4_3_u08_r11_network.node[39].content_store 	p_hit[39] 	0.27912621359223
scalar tree_4_3_u08_r11_network.node[39].content_store 	hits[39] 	3335
scalar tree_4_3_u08_r11_network.node[39].content_store 	misses[39] 	8613
scalar tree_4_3_u08_r11_network.node[39].content_store 	decision_yes[39] 	116
scalar tree_4_3_u08_r11_network.node[39].content_store 	decision_no[39] 	8496
scalar tree_4_3_u08_r11_network.node[39].content_store 	decision_ratio[39] 	0.013469577333953
scalar tree_4_3_u08_r11_network.client[13] 	hdistance[13] 	2.6669458870833
scalar tree_4_3_u08_r11_network.client[13] 	downloads[13] 	11938
scalar tree_4_3_u08_r11_network.client[13] 	avg_time[13] 	0.004168366956
scalar tree_4_3_u08_r11_network.client[14] 	hdistance[14] 	2.5871735152221
scalar tree_4_3_u08_r11_network.client[14] 	downloads[14] 	12022
scalar tree_4_3_u08_r11_network.client[14] 	avg_time[14] 	0.004055561794
scalar tree_4_3_u08_r11_network.client[15] 	hdistance[15] 	2.5488953730721
scalar tree_4_3_u08_r11_network.client[15] 	downloads[15] 	11995
scalar tree_4_3_u08_r11_network.client[15] 	avg_time[15] 	0.004000497225
scalar tree_4_3_u08_r11_network.client[16] 	hdistance[16] 	2.6046530951392
scalar tree_4_3_u08_r11_network.client[16] 	downloads[16] 	12035
scalar tree_4_3_u08_r11_network.client[16] 	avg_time[16] 	0.004087741081
scalar tree_4_3_u08_r11_network.client[17] 	hdistance[17] 	2.6544396660764
scalar tree_4_3_u08_r11_network.client[17] 	downloads[17] 	11859
scalar tree_4_3_u08_r11_network.client[17] 	avg_time[17] 	0.004187027958
scalar tree_4_3_u08_r11_network.client[18] 	hdistance[18] 	2.572571238127
scalar tree_4_3_u08_r11_network.client[18] 	downloads[18] 	12002
scalar tree_4_3_u08_r11_network.client[18] 	avg_time[18] 	0.004053321465
scalar tree_4_3_u08_r11_network.client[19] 	hdistance[19] 	2.5841261892839
scalar tree_4_3_u08_r11_network.client[19] 	downloads[19] 	11982
scalar tree_4_3_u08_r11_network.client[19] 	avg_time[19] 	0.004053410461
scalar tree_4_3_u08_r11_network.client[20] 	hdistance[20] 	2.6256401784239
scalar tree_4_3_u08_r11_network.client[20] 	downloads[20] 	12106
scalar tree_4_3_u08_r11_network.client[20] 	avg_time[20] 	0.004133980121
scalar tree_4_3_u08_r11_network.client[21] 	hdistance[21] 	2.6183039462637
scalar tree_4_3_u08_r11_network.client[21] 	downloads[21] 	11910
scalar tree_4_3_u08_r11_network.client[21] 	avg_time[21] 	0.004121239656
scalar tree_4_3_u08_r11_network.client[22] 	hdistance[22] 	2.6506145815794
scalar tree_4_3_u08_r11_network.client[22] 	downloads[22] 	11878
scalar tree_4_3_u08_r11_network.client[22] 	avg_time[22] 	0.004182687692
scalar tree_4_3_u08_r11_network.client[23] 	hdistance[23] 	2.58435735636
scalar tree_4_3_u08_r11_network.client[23] 	downloads[23] 	12044
scalar tree_4_3_u08_r11_network.client[23] 	avg_time[23] 	0.004055894782
scalar tree_4_3_u08_r11_network.client[24] 	hdistance[24] 	2.5755848075794
scalar tree_4_3_u08_r11_network.client[24] 	downloads[24] 	11927
scalar tree_4_3_u08_r11_network.client[24] 	avg_time[24] 	0.004046165736
scalar tree_4_3_u08_r11_network.client[25] 	hdistance[25] 	2.5789690382082
scalar tree_4_3_u08_r11_network.client[25] 	downloads[25] 	12144
scalar tree_4_3_u08_r11_network.client[25] 	avg_time[25] 	0.004039357982
scalar tree_4_3_u08_r11_network.client[26] 	hdistance[26] 	2.6443583614934
scalar tree_4_3_u08_r11_network.client[26] 	downloads[26] 	12133
scalar tree_4_3_u08_r11_network.client[26] 	avg_time[26] 	0.004150165931
scalar tree_4_3_u08_r11_network.client[27] 	hdistance[27] 	2.5920327375981
scalar tree_4_3_u08_r11_network.client[27] 	downloads[27] 	11974
scalar tree_4_3_u08_r11_network.client[27] 	avg_time[27] 	0.004043591454
scalar tree_4_3_u08_r11_network.client[28] 	hdistance[28] 	2.5656674395495
scalar tree_4_3_u08_r11_network.client[28] 	downloads[28] 	12076
scalar tree_4_3_u08_r11_network.client[28] 	avg_time[28] 	0.00403113316
scalar tree_4_3_u08_r11_network.client[29] 	hdistance[29] 	2.584716516023
scalar tree_4_3_u08_r11_network.client[29] 	downloads[29] 	12170
scalar tree_4_3_u08_r11_network.client[29] 	avg_time[29] 	0.004031714276
scalar tree_4_3_u08_r11_network.client[30] 	hdistance[30] 	2.6176397101691
scalar tree_4_3_u08_r11_network.client[30] 	downloads[30] 	12007
scalar tree_4_3_u08_r11_network.client[30] 	avg_time[30] 	0.004099250346
scalar tree_4_3_u08_r11_network.client[31] 	hdistance[31] 	2.6507271382795
scalar tree_4_3_u08_r11_network.client[31] 	downloads[31] 	12171
scalar tree_4_3_u08_r11_network.client[31] 	avg_time[31] 	0.004126646996
scalar tree_4_3_u08_r11_network.client[32] 	hdistance[32] 	2.6883330590752
scalar tree_4_3_u08_r11_network.client[32] 	downloads[32] 	12154
scalar tree_4_3_u08_r11_network.client[32] 	avg_time[32] 	0.004190057876
scalar tree_4_3_u08_r11_network.client[33] 	hdistance[33] 	2.649196538937
scalar tree_4_3_u08_r11_network.client[33] 	downloads[33] 	12135
scalar tree_4_3_u08_r11_network.client[33] 	avg_time[33] 	0.004114871256
scalar tree_4_3_u08_r11_network.client[34] 	hdistance[34] 	2.5840848363393
scalar tree_4_3_u08_r11_network.client[34] 	downloads[34] 	11976
scalar tree_4_3_u08_r11_network.client[34] 	avg_time[34] 	0.004062729783
scalar tree_4_3_u08_r11_network.client[35] 	hdistance[35] 	2.6226446979299
scalar tree_4_3_u08_r11_network.client[35] 	downloads[35] 	11835
scalar tree_4_3_u08_r11_network.client[35] 	avg_time[35] 	0.004140934905
scalar tree_4_3_u08_r11_network.client[36] 	hdistance[36] 	2.5799109767364
scalar tree_4_3_u08_r11_network.client[36] 	downloads[36] 	11907
scalar tree_4_3_u08_r11_network.client[36] 	avg_time[36] 	0.004052571129
scalar tree_4_3_u08_r11_network.client[37] 	hdistance[37] 	2.5887629040447
scalar tree_4_3_u08_r11_network.client[37] 	downloads[37] 	11818
scalar tree_4_3_u08_r11_network.client[37] 	avg_time[37] 	0.004011335671
scalar tree_4_3_u08_r11_network.client[38] 	hdistance[38] 	2.6172129096823
scalar tree_4_3_u08_r11_network.client[38] 	downloads[38] 	11991
scalar tree_4_3_u08_r11_network.client[38] 	avg_time[38] 	0.004105075807
scalar tree_4_3_u08_r11_network.client[39] 	hdistance[39] 	2.6706233988044
scalar tree_4_3_u08_r11_network.client[39] 	downloads[39] 	11710
scalar tree_4_3_u08_r11_network.client[39] 	avg_time[39] 	0.004169603481
