version 2
run General-213-20160903-01:42:54-4279
attr a 0.9
attr cd ffc0.2
attr configname General
attr cr lru
attr datetime 20160903-01:42:54
attr experiment General
attr fsize 1
attr inifile hw5115/scenario_Y/omnetp.ini
attr iterationvars "$name=tree_4_3, $un=10, $rep=14, $cd=ffc0.2, $cr=lru, $fsize=1, $a=0.9, $sl=nrr, $ttl=1000, $variance=0.05"
attr iterationvars2 "$name=tree_4_3, $un=10, $rep=14, $cd=ffc0.2, $cr=lru, $fsize=1, $a=0.9, $sl=nrr, $ttl=1000, $variance=0.05, $repetition=0"
attr measurement "$name=tree_4_3, $un=10, $rep=14, $cd=ffc0.2, $cr=lru, $fsize=1, $a=0.9, $sl=nrr, $ttl=1000, $variance=0.05"
attr name tree_4_3
attr network networks.${name}_u${un}_r${rep}_network
attr processid 4279
attr rep 14
attr repetition 0
attr replication #0
attr resultdir results
attr runnumber 213
attr seedset 14
attr sl nrr
attr ttl 1000
attr un 10
attr variance 0.05

scalar . 	a 	0.9
scalar . 	fsize 	1
scalar . 	rep 	14
scalar . 	ttl 	1000
scalar . 	un 	10
scalar . 	variance 	0.05
scalar tree_4_3_u10_r14_network.content_distribution 	repo-0 	0
scalar tree_4_3_u10_r14_network.content_distribution 	client-0 	13
scalar tree_4_3_u10_r14_network.content_distribution 	client-1 	14
scalar tree_4_3_u10_r14_network.content_distribution 	client-2 	15
scalar tree_4_3_u10_r14_network.content_distribution 	client-3 	16
scalar tree_4_3_u10_r14_network.content_distribution 	client-4 	17
scalar tree_4_3_u10_r14_network.content_distribution 	client-5 	18
scalar tree_4_3_u10_r14_network.content_distribution 	client-6 	19
scalar tree_4_3_u10_r14_network.content_distribution 	client-7 	20
scalar tree_4_3_u10_r14_network.content_distribution 	client-8 	21
scalar tree_4_3_u10_r14_network.content_distribution 	client-9 	22
scalar tree_4_3_u10_r14_network.content_distribution 	client-10 	23
scalar tree_4_3_u10_r14_network.content_distribution 	client-11 	24
scalar tree_4_3_u10_r14_network.content_distribution 	client-12 	25
scalar tree_4_3_u10_r14_network.content_distribution 	client-13 	26
scalar tree_4_3_u10_r14_network.content_distribution 	client-14 	27
scalar tree_4_3_u10_r14_network.content_distribution 	client-15 	28
scalar tree_4_3_u10_r14_network.content_distribution 	client-16 	29
scalar tree_4_3_u10_r14_network.content_distribution 	client-17 	30
scalar tree_4_3_u10_r14_network.content_distribution 	client-18 	31
scalar tree_4_3_u10_r14_network.content_distribution 	client-19 	32
scalar tree_4_3_u10_r14_network.content_distribution 	client-20 	33
scalar tree_4_3_u10_r14_network.content_distribution 	client-21 	34
scalar tree_4_3_u10_r14_network.content_distribution 	client-22 	35
scalar tree_4_3_u10_r14_network.content_distribution 	client-23 	36
scalar tree_4_3_u10_r14_network.content_distribution 	client-24 	37
scalar tree_4_3_u10_r14_network.content_distribution 	client-25 	38
scalar tree_4_3_u10_r14_network.content_distribution 	client-26 	39
scalar tree_4_3_u10_r14_network.content_distribution 	repo-0_card 	100000
scalar tree_4_3_u10_r14_network.content_distribution 	repo-0_price 	0
scalar tree_4_3_u10_r14_network.statistics 	stabilization_time 	1785.6
scalar tree_4_3_u10_r14_network.statistics 	p_hit 	0.24641777500392
scalar tree_4_3_u10_r14_network.statistics 	interests 	24508.5
scalar tree_4_3_u10_r14_network.statistics 	data 	16413.8
scalar tree_4_3_u10_r14_network.statistics 	hdistance 	2.5752527723536
scalar tree_4_3_u10_r14_network.statistics 	avg_time 	0.004055604138
scalar tree_4_3_u10_r14_network.statistics 	downloads 	323781
scalar tree_4_3_u10_r14_network.statistics 	total_cost 	0
scalar tree_4_3_u10_r14_network.statistics 	total_replicas 	100000
scalar tree_4_3_u10_r14_network.statistics 	inner_hit 	0.45257442530599
scalar tree_4_3_u10_r14_network.node[0].core_layer 	interests[0] 	180278
scalar tree_4_3_u10_r14_network.node[0].core_layer 	repo_load[0] 	177246
scalar tree_4_3_u10_r14_network.node[0].core_layer 	data[0] 	0
scalar tree_4_3_u10_r14_network.node[0].core_layer 	repo_int[0] 	177246
scalar tree_4_3_u10_r14_network.node[0].content_store 	p_hit[0] 	0.016818469253043
scalar tree_4_3_u10_r14_network.node[0].content_store 	hits[0] 	3032
scalar tree_4_3_u10_r14_network.node[0].content_store 	misses[0] 	177246
scalar tree_4_3_u10_r14_network.node[0].content_store 	decision_yes[0] 	157
scalar tree_4_3_u10_r14_network.node[0].content_store 	decision_no[0] 	177089
scalar tree_4_3_u10_r14_network.node[0].content_store 	decision_ratio[0] 	0.00088577457319206
scalar tree_4_3_u10_r14_network.node[1].core_layer 	interests[1] 	136771
scalar tree_4_3_u10_r14_network.node[1].core_layer 	data[1] 	133258
scalar tree_4_3_u10_r14_network.node[1].content_store 	p_hit[1] 	0.025670646555191
scalar tree_4_3_u10_r14_network.node[1].content_store 	hits[1] 	3511
scalar tree_4_3_u10_r14_network.node[1].content_store 	misses[1] 	133260
scalar tree_4_3_u10_r14_network.node[1].content_store 	decision_yes[1] 	119
scalar tree_4_3_u10_r14_network.node[1].content_store 	decision_no[1] 	133139
scalar tree_4_3_u10_r14_network.node[1].content_store 	decision_ratio[1] 	0.00089300454756938
scalar tree_4_3_u10_r14_network.node[2].core_layer 	interests[2] 	55361
scalar tree_4_3_u10_r14_network.node[2].core_layer 	data[2] 	51780
scalar tree_4_3_u10_r14_network.node[2].content_store 	p_hit[2] 	0.064666461949748
scalar tree_4_3_u10_r14_network.node[2].content_store 	hits[2] 	3580
scalar tree_4_3_u10_r14_network.node[2].content_store 	misses[2] 	51781
scalar tree_4_3_u10_r14_network.node[2].content_store 	decision_yes[2] 	66
scalar tree_4_3_u10_r14_network.node[2].content_store 	decision_no[2] 	51714
scalar tree_4_3_u10_r14_network.node[2].content_store 	decision_ratio[2] 	0.0012746234067207
scalar tree_4_3_u10_r14_network.node[3].core_layer 	interests[3] 	13621
scalar tree_4_3_u10_r14_network.node[3].core_layer 	data[3] 	10112
scalar tree_4_3_u10_r14_network.node[3].content_store 	p_hit[3] 	0.25761691505763
scalar tree_4_3_u10_r14_network.node[3].content_store 	hits[3] 	3509
scalar tree_4_3_u10_r14_network.node[3].content_store 	misses[3] 	10112
scalar tree_4_3_u10_r14_network.node[3].content_store 	decision_yes[3] 	43
scalar tree_4_3_u10_r14_network.node[3].content_store 	decision_no[3] 	10069
scalar tree_4_3_u10_r14_network.node[3].content_store 	decision_ratio[3] 	0.0042523734177215
scalar tree_4_3_u10_r14_network.node[4].core_layer 	interests[4] 	41914
scalar tree_4_3_u10_r14_network.node[4].core_layer 	data[4] 	38963
scalar tree_4_3_u10_r14_network.node[4].content_store 	p_hit[4] 	0.070406069571026
scalar tree_4_3_u10_r14_network.node[4].content_store 	hits[4] 	2951
scalar tree_4_3_u10_r14_network.node[4].content_store 	misses[4] 	38963
scalar tree_4_3_u10_r14_network.node[4].content_store 	decision_yes[4] 	45
scalar tree_4_3_u10_r14_network.node[4].content_store 	decision_no[4] 	38918
scalar tree_4_3_u10_r14_network.node[4].content_store 	decision_ratio[4] 	0.001154941867926
scalar tree_4_3_u10_r14_network.node[5].core_layer 	interests[5] 	28834
scalar tree_4_3_u10_r14_network.node[5].core_layer 	data[5] 	25461
scalar tree_4_3_u10_r14_network.node[5].content_store 	p_hit[5] 	0.11697995422071
scalar tree_4_3_u10_r14_network.node[5].content_store 	hits[5] 	3373
scalar tree_4_3_u10_r14_network.node[5].content_store 	misses[5] 	25461
scalar tree_4_3_u10_r14_network.node[5].content_store 	decision_yes[5] 	57
scalar tree_4_3_u10_r14_network.node[5].content_store 	decision_no[5] 	25404
scalar tree_4_3_u10_r14_network.node[5].content_store 	decision_ratio[5] 	0.0022387180393543
scalar tree_4_3_u10_r14_network.node[6].core_layer 	interests[6] 	13904
scalar tree_4_3_u10_r14_network.node[6].core_layer 	data[6] 	10465
scalar tree_4_3_u10_r14_network.node[6].content_store 	p_hit[6] 	0.24733889528193
scalar tree_4_3_u10_r14_network.node[6].content_store 	hits[6] 	3439
scalar tree_4_3_u10_r14_network.node[6].content_store 	misses[6] 	10465
scalar tree_4_3_u10_r14_network.node[6].content_store 	decision_yes[6] 	62
scalar tree_4_3_u10_r14_network.node[6].content_store 	decision_no[6] 	10403
scalar tree_4_3_u10_r14_network.node[6].content_store 	decision_ratio[6] 	0.0059245102723364
scalar tree_4_3_u10_r14_network.node[7].core_layer 	interests[7] 	43883
scalar tree_4_3_u10_r14_network.node[7].core_layer 	data[7] 	40212
scalar tree_4_3_u10_r14_network.node[7].content_store 	p_hit[7] 	0.083585898867443
scalar tree_4_3_u10_r14_network.node[7].content_store 	hits[7] 	3668
scalar tree_4_3_u10_r14_network.node[7].content_store 	misses[7] 	40215
scalar tree_4_3_u10_r14_network.node[7].content_store 	decision_yes[7] 	59
scalar tree_4_3_u10_r14_network.node[7].content_store 	decision_no[7] 	40153
scalar tree_4_3_u10_r14_network.node[7].content_store 	decision_ratio[7] 	0.0014672237143141
scalar tree_4_3_u10_r14_network.node[8].core_layer 	interests[8] 	26751
scalar tree_4_3_u10_r14_network.node[8].core_layer 	data[8] 	24018
scalar tree_4_3_u10_r14_network.node[8].content_store 	p_hit[8] 	0.10208964150873
scalar tree_4_3_u10_r14_network.node[8].content_store 	hits[8] 	2731
scalar tree_4_3_u10_r14_network.node[8].content_store 	misses[8] 	24020
scalar tree_4_3_u10_r14_network.node[8].content_store 	decision_yes[8] 	49
scalar tree_4_3_u10_r14_network.node[8].content_store 	decision_no[8] 	23969
scalar tree_4_3_u10_r14_network.node[8].content_store 	decision_ratio[8] 	0.0020401365642435
scalar tree_4_3_u10_r14_network.node[9].core_layer 	interests[9] 	13794
scalar tree_4_3_u10_r14_network.node[9].core_layer 	data[9] 	10480
scalar tree_4_3_u10_r14_network.node[9].content_store 	p_hit[9] 	0.24024938379005
scalar tree_4_3_u10_r14_network.node[9].content_store 	hits[9] 	3314
scalar tree_4_3_u10_r14_network.node[9].content_store 	misses[9] 	10480
scalar tree_4_3_u10_r14_network.node[9].content_store 	decision_yes[9] 	61
scalar tree_4_3_u10_r14_network.node[9].content_store 	decision_no[9] 	10419
scalar tree_4_3_u10_r14_network.node[9].content_store 	decision_ratio[9] 	0.0058206106870229
scalar tree_4_3_u10_r14_network.node[10].core_layer 	interests[10] 	43210
scalar tree_4_3_u10_r14_network.node[10].core_layer 	data[10] 	39564
scalar tree_4_3_u10_r14_network.node[10].content_store 	p_hit[10] 	0.084378616061097
scalar tree_4_3_u10_r14_network.node[10].content_store 	hits[10] 	3646
scalar tree_4_3_u10_r14_network.node[10].content_store 	misses[10] 	39564
scalar tree_4_3_u10_r14_network.node[10].content_store 	decision_yes[10] 	70
scalar tree_4_3_u10_r14_network.node[10].content_store 	decision_no[10] 	39494
scalar tree_4_3_u10_r14_network.node[10].content_store 	decision_ratio[10] 	0.0017692852087757
scalar tree_4_3_u10_r14_network.node[11].core_layer 	interests[11] 	28421
scalar tree_4_3_u10_r14_network.node[11].core_layer 	data[11] 	25273
scalar tree_4_3_u10_r14_network.node[11].content_store 	p_hit[11] 	0.11079835333028
scalar tree_4_3_u10_r14_network.node[11].content_store 	hits[11] 	3149
scalar tree_4_3_u10_r14_network.node[11].content_store 	misses[11] 	25272
scalar tree_4_3_u10_r14_network.node[11].content_store 	decision_yes[11] 	58
scalar tree_4_3_u10_r14_network.node[11].content_store 	decision_no[11] 	25215
scalar tree_4_3_u10_r14_network.node[11].content_store 	decision_ratio[11] 	0.0022949392632454
scalar tree_4_3_u10_r14_network.node[12].core_layer 	interests[12] 	12025
scalar tree_4_3_u10_r14_network.node[12].core_layer 	data[12] 	9104
scalar tree_4_3_u10_r14_network.node[12].content_store 	p_hit[12] 	0.2429106029106
scalar tree_4_3_u10_r14_network.node[12].content_store 	hits[12] 	2921
scalar tree_4_3_u10_r14_network.node[12].content_store 	misses[12] 	9104
scalar tree_4_3_u10_r14_network.node[12].content_store 	decision_yes[12] 	30
scalar tree_4_3_u10_r14_network.node[12].content_store 	decision_no[12] 	9074
scalar tree_4_3_u10_r14_network.node[12].content_store 	decision_ratio[12] 	0.0032952548330404
scalar tree_4_3_u10_r14_network.node[13].core_layer 	interests[13] 	12344
scalar tree_4_3_u10_r14_network.node[13].core_layer 	data[13] 	8826
scalar tree_4_3_u10_r14_network.node[13].content_store 	p_hit[13] 	0.2849967595593
scalar tree_4_3_u10_r14_network.node[13].content_store 	hits[13] 	3518
scalar tree_4_3_u10_r14_network.node[13].content_store 	misses[13] 	8826
scalar tree_4_3_u10_r14_network.node[13].content_store 	decision_yes[13] 	18
scalar tree_4_3_u10_r14_network.node[13].content_store 	decision_no[13] 	8808
scalar tree_4_3_u10_r14_network.node[13].content_store 	decision_ratio[13] 	0.0020394289598912
scalar tree_4_3_u10_r14_network.node[14].core_layer 	interests[14] 	12873
scalar tree_4_3_u10_r14_network.node[14].core_layer 	data[14] 	8870
scalar tree_4_3_u10_r14_network.node[14].content_store 	p_hit[14] 	0.31096092596908
scalar tree_4_3_u10_r14_network.node[14].content_store 	hits[14] 	4003
scalar tree_4_3_u10_r14_network.node[14].content_store 	misses[14] 	8870
scalar tree_4_3_u10_r14_network.node[14].content_store 	decision_yes[14] 	23
scalar tree_4_3_u10_r14_network.node[14].content_store 	decision_no[14] 	8847
scalar tree_4_3_u10_r14_network.node[14].content_store 	decision_ratio[14] 	0.0025930101465614
scalar tree_4_3_u10_r14_network.node[15].core_layer 	interests[15] 	12904
scalar tree_4_3_u10_r14_network.node[15].core_layer 	data[15] 	8805
scalar tree_4_3_u10_r14_network.node[15].content_store 	p_hit[15] 	0.31765344079355
scalar tree_4_3_u10_r14_network.node[15].content_store 	hits[15] 	4099
scalar tree_4_3_u10_r14_network.node[15].content_store 	misses[15] 	8805
scalar tree_4_3_u10_r14_network.node[15].content_store 	decision_yes[15] 	25
scalar tree_4_3_u10_r14_network.node[15].content_store 	decision_no[15] 	8780
scalar tree_4_3_u10_r14_network.node[15].content_store 	decision_ratio[15] 	0.0028392958546281
scalar tree_4_3_u10_r14_network.node[16].core_layer 	interests[16] 	12984
scalar tree_4_3_u10_r14_network.node[16].core_layer 	data[16] 	8872
scalar tree_4_3_u10_r14_network.node[16].content_store 	p_hit[16] 	0.31669747381392
scalar tree_4_3_u10_r14_network.node[16].content_store 	hits[16] 	4112
scalar tree_4_3_u10_r14_network.node[16].content_store 	misses[16] 	8872
scalar tree_4_3_u10_r14_network.node[16].content_store 	decision_yes[16] 	34
scalar tree_4_3_u10_r14_network.node[16].content_store 	decision_no[16] 	8838
scalar tree_4_3_u10_r14_network.node[16].content_store 	decision_ratio[16] 	0.0038322813345356
scalar tree_4_3_u10_r14_network.node[17].core_layer 	interests[17] 	12226
scalar tree_4_3_u10_r14_network.node[17].core_layer 	data[17] 	8691
scalar tree_4_3_u10_r14_network.node[17].content_store 	p_hit[17] 	0.28913790283003
scalar tree_4_3_u10_r14_network.node[17].content_store 	hits[17] 	3535
scalar tree_4_3_u10_r14_network.node[17].content_store 	misses[17] 	8691
scalar tree_4_3_u10_r14_network.node[17].content_store 	decision_yes[17] 	20
scalar tree_4_3_u10_r14_network.node[17].content_store 	decision_no[17] 	8671
scalar tree_4_3_u10_r14_network.node[17].content_store 	decision_ratio[17] 	0.0023012311586699
scalar tree_4_3_u10_r14_network.node[18].core_layer 	interests[18] 	12729
scalar tree_4_3_u10_r14_network.node[18].core_layer 	data[18] 	8961
scalar tree_4_3_u10_r14_network.node[18].content_store 	p_hit[18] 	0.29601696912562
scalar tree_4_3_u10_r14_network.node[18].content_store 	hits[18] 	3768
scalar tree_4_3_u10_r14_network.node[18].content_store 	misses[18] 	8961
scalar tree_4_3_u10_r14_network.node[18].content_store 	decision_yes[18] 	21
scalar tree_4_3_u10_r14_network.node[18].content_store 	decision_no[18] 	8940
scalar tree_4_3_u10_r14_network.node[18].content_store 	decision_ratio[18] 	0.0023434884499498
scalar tree_4_3_u10_r14_network.node[19].core_layer 	interests[19] 	12852
scalar tree_4_3_u10_r14_network.node[19].core_layer 	data[19] 	8825
scalar tree_4_3_u10_r14_network.node[19].content_store 	p_hit[19] 	0.31333644568939
scalar tree_4_3_u10_r14_network.node[19].content_store 	hits[19] 	4027
scalar tree_4_3_u10_r14_network.node[19].content_store 	misses[19] 	8825
scalar tree_4_3_u10_r14_network.node[19].content_store 	decision_yes[19] 	24
scalar tree_4_3_u10_r14_network.node[19].content_store 	decision_no[19] 	8801
scalar tree_4_3_u10_r14_network.node[19].content_store 	decision_ratio[19] 	0.0027195467422096
scalar tree_4_3_u10_r14_network.node[20].core_layer 	interests[20] 	12845
scalar tree_4_3_u10_r14_network.node[20].core_layer 	data[20] 	8867
scalar tree_4_3_u10_r14_network.node[20].content_store 	p_hit[20] 	0.30969248734916
scalar tree_4_3_u10_r14_network.node[20].content_store 	hits[20] 	3978
scalar tree_4_3_u10_r14_network.node[20].content_store 	misses[20] 	8867
scalar tree_4_3_u10_r14_network.node[20].content_store 	decision_yes[20] 	26
scalar tree_4_3_u10_r14_network.node[20].content_store 	decision_no[20] 	8841
scalar tree_4_3_u10_r14_network.node[20].content_store 	decision_ratio[20] 	0.0029322205932108
scalar tree_4_3_u10_r14_network.node[21].core_layer 	interests[21] 	12351
scalar tree_4_3_u10_r14_network.node[21].core_layer 	data[21] 	8759
scalar tree_4_3_u10_r14_network.node[21].content_store 	p_hit[21] 	0.29082665371225
scalar tree_4_3_u10_r14_network.node[21].content_store 	hits[21] 	3592
scalar tree_4_3_u10_r14_network.node[21].content_store 	misses[21] 	8759
scalar tree_4_3_u10_r14_network.node[21].content_store 	decision_yes[21] 	27
scalar tree_4_3_u10_r14_network.node[21].content_store 	decision_no[21] 	8732
scalar tree_4_3_u10_r14_network.node[21].content_store 	decision_ratio[21] 	0.0030825436693686
scalar tree_4_3_u10_r14_network.node[22].core_layer 	interests[22] 	12422
scalar tree_4_3_u10_r14_network.node[22].core_layer 	data[22] 	8758
scalar tree_4_3_u10_r14_network.node[22].content_store 	p_hit[22] 	0.29496055385606
scalar tree_4_3_u10_r14_network.node[22].content_store 	hits[22] 	3664
scalar tree_4_3_u10_r14_network.node[22].content_store 	misses[22] 	8758
scalar tree_4_3_u10_r14_network.node[22].content_store 	decision_yes[22] 	23
scalar tree_4_3_u10_r14_network.node[22].content_store 	decision_no[22] 	8735
scalar tree_4_3_u10_r14_network.node[22].content_store 	decision_ratio[22] 	0.0026261703585293
scalar tree_4_3_u10_r14_network.node[23].core_layer 	interests[23] 	12781
scalar tree_4_3_u10_r14_network.node[23].core_layer 	data[23] 	8914
scalar tree_4_3_u10_r14_network.node[23].content_store 	p_hit[23] 	0.30255848525155
scalar tree_4_3_u10_r14_network.node[23].content_store 	hits[23] 	3867
scalar tree_4_3_u10_r14_network.node[23].content_store 	misses[23] 	8914
scalar tree_4_3_u10_r14_network.node[23].content_store 	decision_yes[23] 	36
scalar tree_4_3_u10_r14_network.node[23].content_store 	decision_no[23] 	8878
scalar tree_4_3_u10_r14_network.node[23].content_store 	decision_ratio[23] 	0.0040385909804801
scalar tree_4_3_u10_r14_network.node[24].core_layer 	interests[24] 	12793
scalar tree_4_3_u10_r14_network.node[24].core_layer 	data[24] 	8903
scalar tree_4_3_u10_r14_network.node[24].content_store 	p_hit[24] 	0.30399437192214
scalar tree_4_3_u10_r14_network.node[24].content_store 	hits[24] 	3889
scalar tree_4_3_u10_r14_network.node[24].content_store 	misses[24] 	8904
scalar tree_4_3_u10_r14_network.node[24].content_store 	decision_yes[24] 	25
scalar tree_4_3_u10_r14_network.node[24].content_store 	decision_no[24] 	8878
scalar tree_4_3_u10_r14_network.node[24].content_store 	decision_ratio[24] 	0.0028080422329552
scalar tree_4_3_u10_r14_network.node[25].core_layer 	interests[25] 	12799
scalar tree_4_3_u10_r14_network.node[25].core_layer 	data[25] 	8883
scalar tree_4_3_u10_r14_network.node[25].content_store 	p_hit[25] 	0.30588327213064
scalar tree_4_3_u10_r14_network.node[25].content_store 	hits[25] 	3915
scalar tree_4_3_u10_r14_network.node[25].content_store 	misses[25] 	8884
scalar tree_4_3_u10_r14_network.node[25].content_store 	decision_yes[25] 	28
scalar tree_4_3_u10_r14_network.node[25].content_store 	decision_no[25] 	8855
scalar tree_4_3_u10_r14_network.node[25].content_store 	decision_ratio[25] 	0.0031520882584712
scalar tree_4_3_u10_r14_network.node[26].core_layer 	interests[26] 	12497
scalar tree_4_3_u10_r14_network.node[26].core_layer 	data[26] 	8841
scalar tree_4_3_u10_r14_network.node[26].content_store 	p_hit[26] 	0.29247019284628
scalar tree_4_3_u10_r14_network.node[26].content_store 	hits[26] 	3655
scalar tree_4_3_u10_r14_network.node[26].content_store 	misses[26] 	8842
scalar tree_4_3_u10_r14_network.node[26].content_store 	decision_yes[26] 	20
scalar tree_4_3_u10_r14_network.node[26].content_store 	decision_no[26] 	8821
scalar tree_4_3_u10_r14_network.node[26].content_store 	decision_ratio[26] 	0.0022621875353467
scalar tree_4_3_u10_r14_network.node[27].core_layer 	interests[27] 	12761
scalar tree_4_3_u10_r14_network.node[27].core_layer 	data[27] 	8777
scalar tree_4_3_u10_r14_network.node[27].content_store 	p_hit[27] 	0.31212287438289
scalar tree_4_3_u10_r14_network.node[27].content_store 	hits[27] 	3983
scalar tree_4_3_u10_r14_network.node[27].content_store 	misses[27] 	8778
scalar tree_4_3_u10_r14_network.node[27].content_store 	decision_yes[27] 	27
scalar tree_4_3_u10_r14_network.node[27].content_store 	decision_no[27] 	8750
scalar tree_4_3_u10_r14_network.node[27].content_store 	decision_ratio[27] 	0.0030762219437165
scalar tree_4_3_u10_r14_network.node[28].core_layer 	interests[28] 	12642
scalar tree_4_3_u10_r14_network.node[28].core_layer 	data[28] 	8748
scalar tree_4_3_u10_r14_network.node[28].content_store 	p_hit[28] 	0.30802088277171
scalar tree_4_3_u10_r14_network.node[28].content_store 	hits[28] 	3894
scalar tree_4_3_u10_r14_network.node[28].content_store 	misses[28] 	8748
scalar tree_4_3_u10_r14_network.node[28].content_store 	decision_yes[28] 	11
scalar tree_4_3_u10_r14_network.node[28].content_store 	decision_no[28] 	8737
scalar tree_4_3_u10_r14_network.node[28].content_store 	decision_ratio[28] 	0.0012574302697759
scalar tree_4_3_u10_r14_network.node[29].core_layer 	interests[29] 	13078
scalar tree_4_3_u10_r14_network.node[29].core_layer 	data[29] 	9012
scalar tree_4_3_u10_r14_network.node[29].content_store 	p_hit[29] 	0.3109038079217
scalar tree_4_3_u10_r14_network.node[29].content_store 	hits[29] 	4066
scalar tree_4_3_u10_r14_network.node[29].content_store 	misses[29] 	9012
scalar tree_4_3_u10_r14_network.node[29].content_store 	decision_yes[29] 	25
scalar tree_4_3_u10_r14_network.node[29].content_store 	decision_no[29] 	8987
scalar tree_4_3_u10_r14_network.node[29].content_store 	decision_ratio[29] 	0.0027740790057701
scalar tree_4_3_u10_r14_network.node[30].core_layer 	interests[30] 	12381
scalar tree_4_3_u10_r14_network.node[30].core_layer 	data[30] 	8810
scalar tree_4_3_u10_r14_network.node[30].content_store 	p_hit[30] 	0.28834504482675
scalar tree_4_3_u10_r14_network.node[30].content_store 	hits[30] 	3570
scalar tree_4_3_u10_r14_network.node[30].content_store 	misses[30] 	8811
scalar tree_4_3_u10_r14_network.node[30].content_store 	decision_yes[30] 	12
scalar tree_4_3_u10_r14_network.node[30].content_store 	decision_no[30] 	8798
scalar tree_4_3_u10_r14_network.node[30].content_store 	decision_ratio[30] 	0.0013620885357548
scalar tree_4_3_u10_r14_network.node[31].core_layer 	interests[31] 	12339
scalar tree_4_3_u10_r14_network.node[31].core_layer 	data[31] 	8674
scalar tree_4_3_u10_r14_network.node[31].content_store 	p_hit[31] 	0.29694464705406
scalar tree_4_3_u10_r14_network.node[31].content_store 	hits[31] 	3664
scalar tree_4_3_u10_r14_network.node[31].content_store 	misses[31] 	8675
scalar tree_4_3_u10_r14_network.node[31].content_store 	decision_yes[31] 	15
scalar tree_4_3_u10_r14_network.node[31].content_store 	decision_no[31] 	8659
scalar tree_4_3_u10_r14_network.node[31].content_store 	decision_ratio[31] 	0.00172930597187
scalar tree_4_3_u10_r14_network.node[32].core_layer 	interests[32] 	12655
scalar tree_4_3_u10_r14_network.node[32].core_layer 	data[32] 	8762
scalar tree_4_3_u10_r14_network.node[32].content_store 	p_hit[32] 	0.30762544448834
scalar tree_4_3_u10_r14_network.node[32].content_store 	hits[32] 	3893
scalar tree_4_3_u10_r14_network.node[32].content_store 	misses[32] 	8762
scalar tree_4_3_u10_r14_network.node[32].content_store 	decision_yes[32] 	19
scalar tree_4_3_u10_r14_network.node[32].content_store 	decision_no[32] 	8743
scalar tree_4_3_u10_r14_network.node[32].content_store 	decision_ratio[32] 	0.0021684546907099
scalar tree_4_3_u10_r14_network.node[33].core_layer 	interests[33] 	13049
scalar tree_4_3_u10_r14_network.node[33].core_layer 	data[33] 	8953
scalar tree_4_3_u10_r14_network.node[33].content_store 	p_hit[33] 	0.31389378496437
scalar tree_4_3_u10_r14_network.node[33].content_store 	hits[33] 	4096
scalar tree_4_3_u10_r14_network.node[33].content_store 	misses[33] 	8953
scalar tree_4_3_u10_r14_network.node[33].content_store 	decision_yes[33] 	27
scalar tree_4_3_u10_r14_network.node[33].content_store 	decision_no[33] 	8926
scalar tree_4_3_u10_r14_network.node[33].content_store 	decision_ratio[33] 	0.0030157489109796
scalar tree_4_3_u10_r14_network.node[34].core_layer 	interests[34] 	12625
scalar tree_4_3_u10_r14_network.node[34].core_layer 	data[34] 	8642
scalar tree_4_3_u10_r14_network.node[34].content_store 	p_hit[34] 	0.31548514851485
scalar tree_4_3_u10_r14_network.node[34].content_store 	hits[34] 	3983
scalar tree_4_3_u10_r14_network.node[34].content_store 	misses[34] 	8642
scalar tree_4_3_u10_r14_network.node[34].content_store 	decision_yes[34] 	28
scalar tree_4_3_u10_r14_network.node[34].content_store 	decision_no[34] 	8614
scalar tree_4_3_u10_r14_network.node[34].content_store 	decision_ratio[34] 	0.0032399907428836
scalar tree_4_3_u10_r14_network.node[35].core_layer 	interests[35] 	12401
scalar tree_4_3_u10_r14_network.node[35].core_layer 	data[35] 	8769
scalar tree_4_3_u10_r14_network.node[35].content_store 	p_hit[35] 	0.29287960648335
scalar tree_4_3_u10_r14_network.node[35].content_store 	hits[35] 	3632
scalar tree_4_3_u10_r14_network.node[35].content_store 	misses[35] 	8769
scalar tree_4_3_u10_r14_network.node[35].content_store 	decision_yes[35] 	24
scalar tree_4_3_u10_r14_network.node[35].content_store 	decision_no[35] 	8745
scalar tree_4_3_u10_r14_network.node[35].content_store 	decision_ratio[35] 	0.0027369141293192
scalar tree_4_3_u10_r14_network.node[36].core_layer 	interests[36] 	12675
scalar tree_4_3_u10_r14_network.node[36].core_layer 	data[36] 	8610
scalar tree_4_3_u10_r14_network.node[36].content_store 	p_hit[36] 	0.3207100591716
scalar tree_4_3_u10_r14_network.node[36].content_store 	hits[36] 	4065
scalar tree_4_3_u10_r14_network.node[36].content_store 	misses[36] 	8610
scalar tree_4_3_u10_r14_network.node[36].content_store 	decision_yes[36] 	26
scalar tree_4_3_u10_r14_network.node[36].content_store 	decision_no[36] 	8584
scalar tree_4_3_u10_r14_network.node[36].content_store 	decision_ratio[36] 	0.0030197444831591
scalar tree_4_3_u10_r14_network.node[37].core_layer 	interests[37] 	12445
scalar tree_4_3_u10_r14_network.node[37].core_layer 	data[37] 	8622
scalar tree_4_3_u10_r14_network.node[37].content_store 	p_hit[37] 	0.30719164323021
scalar tree_4_3_u10_r14_network.node[37].content_store 	hits[37] 	3823
scalar tree_4_3_u10_r14_network.node[37].content_store 	misses[37] 	8622
scalar tree_4_3_u10_r14_network.node[37].content_store 	decision_yes[37] 	27
scalar tree_4_3_u10_r14_network.node[37].content_store 	decision_no[37] 	8595
scalar tree_4_3_u10_r14_network.node[37].content_store 	decision_ratio[37] 	0.0031315240083507
scalar tree_4_3_u10_r14_network.node[38].core_layer 	interests[38] 	12807
scalar tree_4_3_u10_r14_network.node[38].core_layer 	data[38] 	8891
scalar tree_4_3_u10_r14_network.node[38].content_store 	p_hit[38] 	0.30584836417584
scalar tree_4_3_u10_r14_network.node[38].content_store 	hits[38] 	3917
scalar tree_4_3_u10_r14_network.node[38].content_store 	misses[38] 	8890
scalar tree_4_3_u10_r14_network.node[38].content_store 	decision_yes[38] 	18
scalar tree_4_3_u10_r14_network.node[38].content_store 	decision_no[38] 	8873
scalar tree_4_3_u10_r14_network.node[38].content_store 	decision_ratio[38] 	0.0020245191766955
scalar tree_4_3_u10_r14_network.node[39].core_layer 	interests[39] 	12315
scalar tree_4_3_u10_r14_network.node[39].core_layer 	data[39] 	8817
scalar tree_4_3_u10_r14_network.node[39].content_store 	p_hit[39] 	0.28404384896468
scalar tree_4_3_u10_r14_network.node[39].content_store 	hits[39] 	3498
scalar tree_4_3_u10_r14_network.node[39].content_store 	misses[39] 	8817
scalar tree_4_3_u10_r14_network.node[39].content_store 	decision_yes[39] 	29
scalar tree_4_3_u10_r14_network.node[39].content_store 	decision_no[39] 	8788
scalar tree_4_3_u10_r14_network.node[39].content_store 	decision_ratio[39] 	0.0032891006011115
scalar tree_4_3_u10_r14_network.client[13] 	hdistance[13] 	2.6499166666667
scalar tree_4_3_u10_r14_network.client[13] 	downloads[13] 	12000
scalar tree_4_3_u10_r14_network.client[13] 	avg_time[13] 	0.004162163655
scalar tree_4_3_u10_r14_network.client[14] 	hdistance[14] 	2.5681231793591
scalar tree_4_3_u10_r14_network.client[14] 	downloads[14] 	12015
scalar tree_4_3_u10_r14_network.client[14] 	avg_time[14] 	0.004043775607
scalar tree_4_3_u10_r14_network.client[15] 	hdistance[15] 	2.5389982556691
scalar tree_4_3_u10_r14_network.client[15] 	downloads[15] 	12039
scalar tree_4_3_u10_r14_network.client[15] 	avg_time[15] 	0.00398700001
scalar tree_4_3_u10_r14_network.client[16] 	hdistance[16] 	2.5671042729325
scalar tree_4_3_u10_r14_network.client[16] 	downloads[16] 	11959
scalar tree_4_3_u10_r14_network.client[16] 	avg_time[16] 	0.004045318525
scalar tree_4_3_u10_r14_network.client[17] 	hdistance[17] 	2.6107416449196
scalar tree_4_3_u10_r14_network.client[17] 	downloads[17] 	11879
scalar tree_4_3_u10_r14_network.client[17] 	avg_time[17] 	0.004124275231
scalar tree_4_3_u10_r14_network.client[18] 	hdistance[18] 	2.5882598879505
scalar tree_4_3_u10_r14_network.client[18] 	downloads[18] 	11959
scalar tree_4_3_u10_r14_network.client[18] 	avg_time[18] 	0.004080104063
scalar tree_4_3_u10_r14_network.client[19] 	hdistance[19] 	2.5750083808247
scalar tree_4_3_u10_r14_network.client[19] 	downloads[19] 	11932
scalar tree_4_3_u10_r14_network.client[19] 	avg_time[19] 	0.00404089544
scalar tree_4_3_u10_r14_network.client[20] 	hdistance[20] 	2.531837376832
scalar tree_4_3_u10_r14_network.client[20] 	downloads[20] 	12077
scalar tree_4_3_u10_r14_network.client[20] 	avg_time[20] 	0.00398939829
scalar tree_4_3_u10_r14_network.client[21] 	hdistance[21] 	2.6074735173909
scalar tree_4_3_u10_r14_network.client[21] 	downloads[21] 	11989
scalar tree_4_3_u10_r14_network.client[21] 	avg_time[21] 	0.004111932947
scalar tree_4_3_u10_r14_network.client[22] 	hdistance[22] 	2.5898378739763
scalar tree_4_3_u10_r14_network.client[22] 	downloads[22] 	11966
scalar tree_4_3_u10_r14_network.client[22] 	avg_time[22] 	0.004110511061
scalar tree_4_3_u10_r14_network.client[23] 	hdistance[23] 	2.5930125136474
scalar tree_4_3_u10_r14_network.client[23] 	downloads[23] 	11907
scalar tree_4_3_u10_r14_network.client[23] 	avg_time[23] 	0.004089915208
scalar tree_4_3_u10_r14_network.client[24] 	hdistance[24] 	2.555906296727
scalar tree_4_3_u10_r14_network.client[24] 	downloads[24] 	12038
scalar tree_4_3_u10_r14_network.client[24] 	avg_time[24] 	0.004024087366
scalar tree_4_3_u10_r14_network.client[25] 	hdistance[25] 	2.5787280153372
scalar tree_4_3_u10_r14_network.client[25] 	downloads[25] 	11997
scalar tree_4_3_u10_r14_network.client[25] 	avg_time[25] 	0.004061512369
scalar tree_4_3_u10_r14_network.client[26] 	hdistance[26] 	2.6301121372032
scalar tree_4_3_u10_r14_network.client[26] 	downloads[26] 	12128
scalar tree_4_3_u10_r14_network.client[26] 	avg_time[26] 	0.004130457085
scalar tree_4_3_u10_r14_network.client[27] 	hdistance[27] 	2.5138231631382
scalar tree_4_3_u10_r14_network.client[27] 	downloads[27] 	12045
scalar tree_4_3_u10_r14_network.client[27] 	avg_time[27] 	0.003962637076
scalar tree_4_3_u10_r14_network.client[28] 	hdistance[28] 	2.5492804551539
scalar tree_4_3_u10_r14_network.client[28] 	downloads[28] 	11952
scalar tree_4_3_u10_r14_network.client[28] 	avg_time[28] 	0.004004180413
scalar tree_4_3_u10_r14_network.client[29] 	hdistance[29] 	2.5540871267744
scalar tree_4_3_u10_r14_network.client[29] 	downloads[29] 	12258
scalar tree_4_3_u10_r14_network.client[29] 	avg_time[29] 	0.004018923358
scalar tree_4_3_u10_r14_network.client[30] 	hdistance[30] 	2.6134964220336
scalar tree_4_3_u10_r14_network.client[30] 	downloads[30] 	12018
scalar tree_4_3_u10_r14_network.client[30] 	avg_time[30] 	0.004126307572
scalar tree_4_3_u10_r14_network.client[31] 	hdistance[31] 	2.6055564938355
scalar tree_4_3_u10_r14_network.client[31] 	downloads[31] 	11842
scalar tree_4_3_u10_r14_network.client[31] 	avg_time[31] 	0.004113826467
scalar tree_4_3_u10_r14_network.client[32] 	hdistance[32] 	2.5465848945644
scalar tree_4_3_u10_r14_network.client[32] 	downloads[32] 	11903
scalar tree_4_3_u10_r14_network.client[32] 	avg_time[32] 	0.004011926765
scalar tree_4_3_u10_r14_network.client[33] 	hdistance[33] 	2.5343505221932
scalar tree_4_3_u10_r14_network.client[33] 	downloads[33] 	12256
scalar tree_4_3_u10_r14_network.client[33] 	avg_time[33] 	0.003987105298
scalar tree_4_3_u10_r14_network.client[34] 	hdistance[34] 	2.509551460069
scalar tree_4_3_u10_r14_network.client[34] 	downloads[34] 	11883
scalar tree_4_3_u10_r14_network.client[34] 	avg_time[34] 	0.003963952148
scalar tree_4_3_u10_r14_network.client[35] 	hdistance[35] 	2.6121955288622
scalar tree_4_3_u10_r14_network.client[35] 	downloads[35] 	11988
scalar tree_4_3_u10_r14_network.client[35] 	avg_time[35] 	0.004126790427
scalar tree_4_3_u10_r14_network.client[36] 	hdistance[36] 	2.5301507537688
scalar tree_4_3_u10_r14_network.client[36] 	downloads[36] 	11940
scalar tree_4_3_u10_r14_network.client[36] 	avg_time[36] 	0.003976043952
scalar tree_4_3_u10_r14_network.client[37] 	hdistance[37] 	2.5767806390492
scalar tree_4_3_u10_r14_network.client[37] 	downloads[37] 	11611
scalar tree_4_3_u10_r14_network.client[37] 	avg_time[37] 	0.004048743989
scalar tree_4_3_u10_r14_network.client[38] 	hdistance[38] 	2.5641215715345
scalar tree_4_3_u10_r14_network.client[38] 	downloads[38] 	12141
scalar tree_4_3_u10_r14_network.client[38] 	avg_time[38] 	0.004030166418
scalar tree_4_3_u10_r14_network.client[39] 	hdistance[39] 	2.6367858031346
scalar tree_4_3_u10_r14_network.client[39] 	downloads[39] 	12059
scalar tree_4_3_u10_r14_network.client[39] 	avg_time[39] 	0.004129360987
