version 2
run General-204-20160903-01:22:04-4279
attr a 0.9
attr cd ffc0.2
attr configname General
attr cr lru
attr datetime 20160903-01:22:04
attr experiment General
attr fsize 1
attr inifile hw5115/scenario_Y/omnetp.ini
attr iterationvars "$name=tree_4_3, $un=10, $rep=5, $cd=ffc0.2, $cr=lru, $fsize=1, $a=0.9, $sl=nrr, $ttl=1000, $variance=0.05"
attr iterationvars2 "$name=tree_4_3, $un=10, $rep=5, $cd=ffc0.2, $cr=lru, $fsize=1, $a=0.9, $sl=nrr, $ttl=1000, $variance=0.05, $repetition=0"
attr measurement "$name=tree_4_3, $un=10, $rep=5, $cd=ffc0.2, $cr=lru, $fsize=1, $a=0.9, $sl=nrr, $ttl=1000, $variance=0.05"
attr name tree_4_3
attr network networks.${name}_u${un}_r${rep}_network
attr processid 4279
attr rep 5
attr repetition 0
attr replication #0
attr resultdir results
attr runnumber 204
attr seedset 5
attr sl nrr
attr ttl 1000
attr un 10
attr variance 0.05

scalar . 	a 	0.9
scalar . 	fsize 	1
scalar . 	rep 	5
scalar . 	ttl 	1000
scalar . 	un 	10
scalar . 	variance 	0.05
scalar tree_4_3_u10_r5_network.content_distribution 	repo-0 	0
scalar tree_4_3_u10_r5_network.content_distribution 	client-0 	13
scalar tree_4_3_u10_r5_network.content_distribution 	client-1 	14
scalar tree_4_3_u10_r5_network.content_distribution 	client-2 	15
scalar tree_4_3_u10_r5_network.content_distribution 	client-3 	16
scalar tree_4_3_u10_r5_network.content_distribution 	client-4 	17
scalar tree_4_3_u10_r5_network.content_distribution 	client-5 	18
scalar tree_4_3_u10_r5_network.content_distribution 	client-6 	19
scalar tree_4_3_u10_r5_network.content_distribution 	client-7 	20
scalar tree_4_3_u10_r5_network.content_distribution 	client-8 	21
scalar tree_4_3_u10_r5_network.content_distribution 	client-9 	22
scalar tree_4_3_u10_r5_network.content_distribution 	client-10 	23
scalar tree_4_3_u10_r5_network.content_distribution 	client-11 	24
scalar tree_4_3_u10_r5_network.content_distribution 	client-12 	25
scalar tree_4_3_u10_r5_network.content_distribution 	client-13 	26
scalar tree_4_3_u10_r5_network.content_distribution 	client-14 	27
scalar tree_4_3_u10_r5_network.content_distribution 	client-15 	28
scalar tree_4_3_u10_r5_network.content_distribution 	client-16 	29
scalar tree_4_3_u10_r5_network.content_distribution 	client-17 	30
scalar tree_4_3_u10_r5_network.content_distribution 	client-18 	31
scalar tree_4_3_u10_r5_network.content_distribution 	client-19 	32
scalar tree_4_3_u10_r5_network.content_distribution 	client-20 	33
scalar tree_4_3_u10_r5_network.content_distribution 	client-21 	34
scalar tree_4_3_u10_r5_network.content_distribution 	client-22 	35
scalar tree_4_3_u10_r5_network.content_distribution 	client-23 	36
scalar tree_4_3_u10_r5_network.content_distribution 	client-24 	37
scalar tree_4_3_u10_r5_network.content_distribution 	client-25 	38
scalar tree_4_3_u10_r5_network.content_distribution 	client-26 	39
scalar tree_4_3_u10_r5_network.content_distribution 	repo-0_card 	100000
scalar tree_4_3_u10_r5_network.content_distribution 	repo-0_price 	0
scalar tree_4_3_u10_r5_network.statistics 	stabilization_time 	1856.2
scalar tree_4_3_u10_r5_network.statistics 	p_hit 	0.24818776736322
scalar tree_4_3_u10_r5_network.statistics 	interests 	24479.875
scalar tree_4_3_u10_r5_network.statistics 	data 	16382.075
scalar tree_4_3_u10_r5_network.statistics 	hdistance 	2.569591450976
scalar tree_4_3_u10_r5_network.statistics 	avg_time 	0.004046392157
scalar tree_4_3_u10_r5_network.statistics 	downloads 	323903
scalar tree_4_3_u10_r5_network.statistics 	total_cost 	0
scalar tree_4_3_u10_r5_network.statistics 	total_replicas 	100000
scalar tree_4_3_u10_r5_network.statistics 	inner_hit 	0.45364816009731
scalar tree_4_3_u10_r5_network.node[0].core_layer 	interests[0] 	179949
scalar tree_4_3_u10_r5_network.node[0].core_layer 	repo_load[0] 	176965
scalar tree_4_3_u10_r5_network.node[0].core_layer 	data[0] 	0
scalar tree_4_3_u10_r5_network.node[0].core_layer 	repo_int[0] 	176965
scalar tree_4_3_u10_r5_network.node[0].content_store 	p_hit[0] 	0.016582476146019
scalar tree_4_3_u10_r5_network.node[0].content_store 	hits[0] 	2984
scalar tree_4_3_u10_r5_network.node[0].content_store 	misses[0] 	176965
scalar tree_4_3_u10_r5_network.node[0].content_store 	decision_yes[0] 	131
scalar tree_4_3_u10_r5_network.node[0].content_store 	decision_no[0] 	176834
scalar tree_4_3_u10_r5_network.node[0].content_store 	decision_ratio[0] 	0.00074025937332241
scalar tree_4_3_u10_r5_network.node[1].core_layer 	interests[1] 	136641
scalar tree_4_3_u10_r5_network.node[1].core_layer 	data[1] 	133372
scalar tree_4_3_u10_r5_network.node[1].content_store 	p_hit[1] 	0.023894731449565
scalar tree_4_3_u10_r5_network.node[1].content_store 	hits[1] 	3265
scalar tree_4_3_u10_r5_network.node[1].content_store 	misses[1] 	133376
scalar tree_4_3_u10_r5_network.node[1].content_store 	decision_yes[1] 	134
scalar tree_4_3_u10_r5_network.node[1].content_store 	decision_no[1] 	133238
scalar tree_4_3_u10_r5_network.node[1].content_store 	decision_ratio[1] 	0.001004708634496
scalar tree_4_3_u10_r5_network.node[2].core_layer 	interests[2] 	55476
scalar tree_4_3_u10_r5_network.node[2].core_layer 	data[2] 	51666
scalar tree_4_3_u10_r5_network.node[2].content_store 	p_hit[2] 	0.068660321580503
scalar tree_4_3_u10_r5_network.node[2].content_store 	hits[2] 	3809
scalar tree_4_3_u10_r5_network.node[2].content_store 	misses[2] 	51667
scalar tree_4_3_u10_r5_network.node[2].content_store 	decision_yes[2] 	55
scalar tree_4_3_u10_r5_network.node[2].content_store 	decision_no[2] 	51611
scalar tree_4_3_u10_r5_network.node[2].content_store 	decision_ratio[2] 	0.0010645298649015
scalar tree_4_3_u10_r5_network.node[3].core_layer 	interests[3] 	13325
scalar tree_4_3_u10_r5_network.node[3].core_layer 	data[3] 	9890
scalar tree_4_3_u10_r5_network.node[3].content_store 	p_hit[3] 	0.2577861163227
scalar tree_4_3_u10_r5_network.node[3].content_store 	hits[3] 	3435
scalar tree_4_3_u10_r5_network.node[3].content_store 	misses[3] 	9890
scalar tree_4_3_u10_r5_network.node[3].content_store 	decision_yes[3] 	60
scalar tree_4_3_u10_r5_network.node[3].content_store 	decision_no[3] 	9830
scalar tree_4_3_u10_r5_network.node[3].content_store 	decision_ratio[3] 	0.0060667340748231
scalar tree_4_3_u10_r5_network.node[4].core_layer 	interests[4] 	41228
scalar tree_4_3_u10_r5_network.node[4].core_layer 	data[4] 	38507
scalar tree_4_3_u10_r5_network.node[4].content_store 	p_hit[4] 	0.065998835742699
scalar tree_4_3_u10_r5_network.node[4].content_store 	hits[4] 	2721
scalar tree_4_3_u10_r5_network.node[4].content_store 	misses[4] 	38507
scalar tree_4_3_u10_r5_network.node[4].content_store 	decision_yes[4] 	49
scalar tree_4_3_u10_r5_network.node[4].content_store 	decision_no[4] 	38458
scalar tree_4_3_u10_r5_network.node[4].content_store 	decision_ratio[4] 	0.0012724959098346
scalar tree_4_3_u10_r5_network.node[5].core_layer 	interests[5] 	29176
scalar tree_4_3_u10_r5_network.node[5].core_layer 	data[5] 	25627
scalar tree_4_3_u10_r5_network.node[5].content_store 	p_hit[5] 	0.12160680010968
scalar tree_4_3_u10_r5_network.node[5].content_store 	hits[5] 	3548
scalar tree_4_3_u10_r5_network.node[5].content_store 	misses[5] 	25628
scalar tree_4_3_u10_r5_network.node[5].content_store 	decision_yes[5] 	56
scalar tree_4_3_u10_r5_network.node[5].content_store 	decision_no[5] 	25571
scalar tree_4_3_u10_r5_network.node[5].content_store 	decision_ratio[5] 	0.0021851953018301
scalar tree_4_3_u10_r5_network.node[6].core_layer 	interests[6] 	13914
scalar tree_4_3_u10_r5_network.node[6].core_layer 	data[6] 	10465
scalar tree_4_3_u10_r5_network.node[6].content_store 	p_hit[6] 	0.24787983326146
scalar tree_4_3_u10_r5_network.node[6].content_store 	hits[6] 	3449
scalar tree_4_3_u10_r5_network.node[6].content_store 	misses[6] 	10465
scalar tree_4_3_u10_r5_network.node[6].content_store 	decision_yes[6] 	57
scalar tree_4_3_u10_r5_network.node[6].content_store 	decision_no[6] 	10408
scalar tree_4_3_u10_r5_network.node[6].content_store 	decision_ratio[6] 	0.0054467271858576
scalar tree_4_3_u10_r5_network.node[7].core_layer 	interests[7] 	43889
scalar tree_4_3_u10_r5_network.node[7].core_layer 	data[7] 	40263
scalar tree_4_3_u10_r5_network.node[7].content_store 	p_hit[7] 	0.082617512360728
scalar tree_4_3_u10_r5_network.node[7].content_store 	hits[7] 	3626
scalar tree_4_3_u10_r5_network.node[7].content_store 	misses[7] 	40263
scalar tree_4_3_u10_r5_network.node[7].content_store 	decision_yes[7] 	69
scalar tree_4_3_u10_r5_network.node[7].content_store 	decision_no[7] 	40194
scalar tree_4_3_u10_r5_network.node[7].content_store 	decision_ratio[7] 	0.0017137322107146
scalar tree_4_3_u10_r5_network.node[8].core_layer 	interests[8] 	26707
scalar tree_4_3_u10_r5_network.node[8].core_layer 	data[8] 	23851
scalar tree_4_3_u10_r5_network.node[8].content_store 	p_hit[8] 	0.10693825588797
scalar tree_4_3_u10_r5_network.node[8].content_store 	hits[8] 	2856
scalar tree_4_3_u10_r5_network.node[8].content_store 	misses[8] 	23851
scalar tree_4_3_u10_r5_network.node[8].content_store 	decision_yes[8] 	43
scalar tree_4_3_u10_r5_network.node[8].content_store 	decision_no[8] 	23808
scalar tree_4_3_u10_r5_network.node[8].content_store 	decision_ratio[8] 	0.0018028594188923
scalar tree_4_3_u10_r5_network.node[9].core_layer 	interests[9] 	13542
scalar tree_4_3_u10_r5_network.node[9].core_layer 	data[9] 	10301
scalar tree_4_3_u10_r5_network.node[9].content_store 	p_hit[9] 	0.23932949342785
scalar tree_4_3_u10_r5_network.node[9].content_store 	hits[9] 	3241
scalar tree_4_3_u10_r5_network.node[9].content_store 	misses[9] 	10301
scalar tree_4_3_u10_r5_network.node[9].content_store 	decision_yes[9] 	69
scalar tree_4_3_u10_r5_network.node[9].content_store 	decision_no[9] 	10232
scalar tree_4_3_u10_r5_network.node[9].content_store 	decision_ratio[9] 	0.0066983787981749
scalar tree_4_3_u10_r5_network.node[10].core_layer 	interests[10] 	43158
scalar tree_4_3_u10_r5_network.node[10].core_layer 	data[10] 	39940
scalar tree_4_3_u10_r5_network.node[10].content_store 	p_hit[10] 	0.074563232772603
scalar tree_4_3_u10_r5_network.node[10].content_store 	hits[10] 	3218
scalar tree_4_3_u10_r5_network.node[10].content_store 	misses[10] 	39940
scalar tree_4_3_u10_r5_network.node[10].content_store 	decision_yes[10] 	62
scalar tree_4_3_u10_r5_network.node[10].content_store 	decision_no[10] 	39878
scalar tree_4_3_u10_r5_network.node[10].content_store 	decision_ratio[10] 	0.0015523284927391
scalar tree_4_3_u10_r5_network.node[11].core_layer 	interests[11] 	28567
scalar tree_4_3_u10_r5_network.node[11].core_layer 	data[11] 	25395
scalar tree_4_3_u10_r5_network.node[11].content_store 	p_hit[11] 	0.11103721076767
scalar tree_4_3_u10_r5_network.node[11].content_store 	hits[11] 	3172
scalar tree_4_3_u10_r5_network.node[11].content_store 	misses[11] 	25395
scalar tree_4_3_u10_r5_network.node[11].content_store 	decision_yes[11] 	57
scalar tree_4_3_u10_r5_network.node[11].content_store 	decision_no[11] 	25338
scalar tree_4_3_u10_r5_network.node[11].content_store 	decision_ratio[11] 	0.0022445363260484
scalar tree_4_3_u10_r5_network.node[12].core_layer 	interests[12] 	11779
scalar tree_4_3_u10_r5_network.node[12].core_layer 	data[12] 	9026
scalar tree_4_3_u10_r5_network.node[12].content_store 	p_hit[12] 	0.23372102894983
scalar tree_4_3_u10_r5_network.node[12].content_store 	hits[12] 	2753
scalar tree_4_3_u10_r5_network.node[12].content_store 	misses[12] 	9026
scalar tree_4_3_u10_r5_network.node[12].content_store 	decision_yes[12] 	36
scalar tree_4_3_u10_r5_network.node[12].content_store 	decision_no[12] 	8990
scalar tree_4_3_u10_r5_network.node[12].content_store 	decision_ratio[12] 	0.0039884777309993
scalar tree_4_3_u10_r5_network.node[13].core_layer 	interests[13] 	12338
scalar tree_4_3_u10_r5_network.node[13].core_layer 	data[13] 	8719
scalar tree_4_3_u10_r5_network.node[13].content_store 	p_hit[13] 	0.29324039552602
scalar tree_4_3_u10_r5_network.node[13].content_store 	hits[13] 	3618
scalar tree_4_3_u10_r5_network.node[13].content_store 	misses[13] 	8720
scalar tree_4_3_u10_r5_network.node[13].content_store 	decision_yes[13] 	27
scalar tree_4_3_u10_r5_network.node[13].content_store 	decision_no[13] 	8692
scalar tree_4_3_u10_r5_network.node[13].content_store 	decision_ratio[13] 	0.0030966853997018
scalar tree_4_3_u10_r5_network.node[14].core_layer 	interests[14] 	12870
scalar tree_4_3_u10_r5_network.node[14].core_layer 	data[14] 	8879
scalar tree_4_3_u10_r5_network.node[14].content_store 	p_hit[14] 	0.31010101010101
scalar tree_4_3_u10_r5_network.node[14].content_store 	hits[14] 	3991
scalar tree_4_3_u10_r5_network.node[14].content_store 	misses[14] 	8879
scalar tree_4_3_u10_r5_network.node[14].content_store 	decision_yes[14] 	19
scalar tree_4_3_u10_r5_network.node[14].content_store 	decision_no[14] 	8860
scalar tree_4_3_u10_r5_network.node[14].content_store 	decision_ratio[14] 	0.0021398806171866
scalar tree_4_3_u10_r5_network.node[15].core_layer 	interests[15] 	12782
scalar tree_4_3_u10_r5_network.node[15].core_layer 	data[15] 	8728
scalar tree_4_3_u10_r5_network.node[15].content_store 	p_hit[15] 	0.3171647629479
scalar tree_4_3_u10_r5_network.node[15].content_store 	hits[15] 	4054
scalar tree_4_3_u10_r5_network.node[15].content_store 	misses[15] 	8728
scalar tree_4_3_u10_r5_network.node[15].content_store 	decision_yes[15] 	20
scalar tree_4_3_u10_r5_network.node[15].content_store 	decision_no[15] 	8708
scalar tree_4_3_u10_r5_network.node[15].content_store 	decision_ratio[15] 	0.0022914757103575
scalar tree_4_3_u10_r5_network.node[16].core_layer 	interests[16] 	13003
scalar tree_4_3_u10_r5_network.node[16].core_layer 	data[16] 	8832
scalar tree_4_3_u10_r5_network.node[16].content_store 	p_hit[16] 	0.32077212950857
scalar tree_4_3_u10_r5_network.node[16].content_store 	hits[16] 	4171
scalar tree_4_3_u10_r5_network.node[16].content_store 	misses[16] 	8832
scalar tree_4_3_u10_r5_network.node[16].content_store 	decision_yes[16] 	16
scalar tree_4_3_u10_r5_network.node[16].content_store 	decision_no[16] 	8816
scalar tree_4_3_u10_r5_network.node[16].content_store 	decision_ratio[16] 	0.0018115942028986
scalar tree_4_3_u10_r5_network.node[17].core_layer 	interests[17] 	12299
scalar tree_4_3_u10_r5_network.node[17].core_layer 	data[17] 	8668
scalar tree_4_3_u10_r5_network.node[17].content_store 	p_hit[17] 	0.29522725424831
scalar tree_4_3_u10_r5_network.node[17].content_store 	hits[17] 	3631
scalar tree_4_3_u10_r5_network.node[17].content_store 	misses[17] 	8668
scalar tree_4_3_u10_r5_network.node[17].content_store 	decision_yes[17] 	24
scalar tree_4_3_u10_r5_network.node[17].content_store 	decision_no[17] 	8644
scalar tree_4_3_u10_r5_network.node[17].content_store 	decision_ratio[17] 	0.0027688047992617
scalar tree_4_3_u10_r5_network.node[18].core_layer 	interests[18] 	12881
scalar tree_4_3_u10_r5_network.node[18].core_layer 	data[18] 	8961
scalar tree_4_3_u10_r5_network.node[18].content_store 	p_hit[18] 	0.30416893098362
scalar tree_4_3_u10_r5_network.node[18].content_store 	hits[18] 	3918
scalar tree_4_3_u10_r5_network.node[18].content_store 	misses[18] 	8963
scalar tree_4_3_u10_r5_network.node[18].content_store 	decision_yes[18] 	28
scalar tree_4_3_u10_r5_network.node[18].content_store 	decision_no[18] 	8933
scalar tree_4_3_u10_r5_network.node[18].content_store 	decision_ratio[18] 	0.0031246512665997
scalar tree_4_3_u10_r5_network.node[19].core_layer 	interests[19] 	12740
scalar tree_4_3_u10_r5_network.node[19].core_layer 	data[19] 	8658
scalar tree_4_3_u10_r5_network.node[19].content_store 	p_hit[19] 	0.32040816326531
scalar tree_4_3_u10_r5_network.node[19].content_store 	hits[19] 	4082
scalar tree_4_3_u10_r5_network.node[19].content_store 	misses[19] 	8658
scalar tree_4_3_u10_r5_network.node[19].content_store 	decision_yes[19] 	19
scalar tree_4_3_u10_r5_network.node[19].content_store 	decision_no[19] 	8639
scalar tree_4_3_u10_r5_network.node[19].content_store 	decision_ratio[19] 	0.0021945021945022
scalar tree_4_3_u10_r5_network.node[20].core_layer 	interests[20] 	12944
scalar tree_4_3_u10_r5_network.node[20].core_layer 	data[20] 	8833
scalar tree_4_3_u10_r5_network.node[20].content_store 	p_hit[20] 	0.317521631644
scalar tree_4_3_u10_r5_network.node[20].content_store 	hits[20] 	4110
scalar tree_4_3_u10_r5_network.node[20].content_store 	misses[20] 	8834
scalar tree_4_3_u10_r5_network.node[20].content_store 	decision_yes[20] 	17
scalar tree_4_3_u10_r5_network.node[20].content_store 	decision_no[20] 	8816
scalar tree_4_3_u10_r5_network.node[20].content_store 	decision_ratio[20] 	0.0019246009283369
scalar tree_4_3_u10_r5_network.node[21].core_layer 	interests[21] 	12329
scalar tree_4_3_u10_r5_network.node[21].core_layer 	data[21] 	8675
scalar tree_4_3_u10_r5_network.node[21].content_store 	p_hit[21] 	0.29637440181685
scalar tree_4_3_u10_r5_network.node[21].content_store 	hits[21] 	3654
scalar tree_4_3_u10_r5_network.node[21].content_store 	misses[21] 	8675
scalar tree_4_3_u10_r5_network.node[21].content_store 	decision_yes[21] 	20
scalar tree_4_3_u10_r5_network.node[21].content_store 	decision_no[21] 	8655
scalar tree_4_3_u10_r5_network.node[21].content_store 	decision_ratio[21] 	0.0023054755043228
scalar tree_4_3_u10_r5_network.node[22].core_layer 	interests[22] 	12389
scalar tree_4_3_u10_r5_network.node[22].core_layer 	data[22] 	8754
scalar tree_4_3_u10_r5_network.node[22].content_store 	p_hit[22] 	0.29340544030995
scalar tree_4_3_u10_r5_network.node[22].content_store 	hits[22] 	3635
scalar tree_4_3_u10_r5_network.node[22].content_store 	misses[22] 	8754
scalar tree_4_3_u10_r5_network.node[22].content_store 	decision_yes[22] 	15
scalar tree_4_3_u10_r5_network.node[22].content_store 	decision_no[22] 	8739
scalar tree_4_3_u10_r5_network.node[22].content_store 	decision_ratio[22] 	0.0017135023989034
scalar tree_4_3_u10_r5_network.node[23].core_layer 	interests[23] 	12745
scalar tree_4_3_u10_r5_network.node[23].core_layer 	data[23] 	8780
scalar tree_4_3_u10_r5_network.node[23].content_store 	p_hit[23] 	0.31110239309533
scalar tree_4_3_u10_r5_network.node[23].content_store 	hits[23] 	3965
scalar tree_4_3_u10_r5_network.node[23].content_store 	misses[23] 	8780
scalar tree_4_3_u10_r5_network.node[23].content_store 	decision_yes[23] 	23
scalar tree_4_3_u10_r5_network.node[23].content_store 	decision_no[23] 	8757
scalar tree_4_3_u10_r5_network.node[23].content_store 	decision_ratio[23] 	0.002619589977221
scalar tree_4_3_u10_r5_network.node[24].core_layer 	interests[24] 	13023
scalar tree_4_3_u10_r5_network.node[24].core_layer 	data[24] 	8943
scalar tree_4_3_u10_r5_network.node[24].content_store 	p_hit[24] 	0.31329186823313
scalar tree_4_3_u10_r5_network.node[24].content_store 	hits[24] 	4080
scalar tree_4_3_u10_r5_network.node[24].content_store 	misses[24] 	8943
scalar tree_4_3_u10_r5_network.node[24].content_store 	decision_yes[24] 	24
scalar tree_4_3_u10_r5_network.node[24].content_store 	decision_no[24] 	8919
scalar tree_4_3_u10_r5_network.node[24].content_store 	decision_ratio[24] 	0.0026836632002684
scalar tree_4_3_u10_r5_network.node[25].core_layer 	interests[25] 	12643
scalar tree_4_3_u10_r5_network.node[25].core_layer 	data[25] 	8764
scalar tree_4_3_u10_r5_network.node[25].content_store 	p_hit[25] 	0.30681009254133
scalar tree_4_3_u10_r5_network.node[25].content_store 	hits[25] 	3879
scalar tree_4_3_u10_r5_network.node[25].content_store 	misses[25] 	8764
scalar tree_4_3_u10_r5_network.node[25].content_store 	decision_yes[25] 	24
scalar tree_4_3_u10_r5_network.node[25].content_store 	decision_no[25] 	8740
scalar tree_4_3_u10_r5_network.node[25].content_store 	decision_ratio[25] 	0.0027384755819261
scalar tree_4_3_u10_r5_network.node[26].core_layer 	interests[26] 	12468
scalar tree_4_3_u10_r5_network.node[26].core_layer 	data[26] 	8694
scalar tree_4_3_u10_r5_network.node[26].content_store 	p_hit[26] 	0.30261469361566
scalar tree_4_3_u10_r5_network.node[26].content_store 	hits[26] 	3773
scalar tree_4_3_u10_r5_network.node[26].content_store 	misses[26] 	8695
scalar tree_4_3_u10_r5_network.node[26].content_store 	decision_yes[26] 	23
scalar tree_4_3_u10_r5_network.node[26].content_store 	decision_no[26] 	8671
scalar tree_4_3_u10_r5_network.node[26].content_store 	decision_ratio[26] 	0.0026455026455026
scalar tree_4_3_u10_r5_network.node[27].core_layer 	interests[27] 	12865
scalar tree_4_3_u10_r5_network.node[27].core_layer 	data[27] 	8829
scalar tree_4_3_u10_r5_network.node[27].content_store 	p_hit[27] 	0.31371939370385
scalar tree_4_3_u10_r5_network.node[27].content_store 	hits[27] 	4036
scalar tree_4_3_u10_r5_network.node[27].content_store 	misses[27] 	8829
scalar tree_4_3_u10_r5_network.node[27].content_store 	decision_yes[27] 	21
scalar tree_4_3_u10_r5_network.node[27].content_store 	decision_no[27] 	8808
scalar tree_4_3_u10_r5_network.node[27].content_store 	decision_ratio[27] 	0.0023785253143051
scalar tree_4_3_u10_r5_network.node[28].core_layer 	interests[28] 	13009
scalar tree_4_3_u10_r5_network.node[28].core_layer 	data[28] 	8862
scalar tree_4_3_u10_r5_network.node[28].content_store 	p_hit[28] 	0.31877930663387
scalar tree_4_3_u10_r5_network.node[28].content_store 	hits[28] 	4147
scalar tree_4_3_u10_r5_network.node[28].content_store 	misses[28] 	8862
scalar tree_4_3_u10_r5_network.node[28].content_store 	decision_yes[28] 	17
scalar tree_4_3_u10_r5_network.node[28].content_store 	decision_no[28] 	8845
scalar tree_4_3_u10_r5_network.node[28].content_store 	decision_ratio[28] 	0.0019183028661702
scalar tree_4_3_u10_r5_network.node[29].core_layer 	interests[29] 	12859
scalar tree_4_3_u10_r5_network.node[29].core_layer 	data[29] 	8711
scalar tree_4_3_u10_r5_network.node[29].content_store 	p_hit[29] 	0.32257562796485
scalar tree_4_3_u10_r5_network.node[29].content_store 	hits[29] 	4148
scalar tree_4_3_u10_r5_network.node[29].content_store 	misses[29] 	8711
scalar tree_4_3_u10_r5_network.node[29].content_store 	decision_yes[29] 	29
scalar tree_4_3_u10_r5_network.node[29].content_store 	decision_no[29] 	8682
scalar tree_4_3_u10_r5_network.node[29].content_store 	decision_ratio[29] 	0.0033291240959706
scalar tree_4_3_u10_r5_network.node[30].core_layer 	interests[30] 	12129
scalar tree_4_3_u10_r5_network.node[30].core_layer 	data[30] 	8590
scalar tree_4_3_u10_r5_network.node[30].content_store 	p_hit[30] 	0.29178003132987
scalar tree_4_3_u10_r5_network.node[30].content_store 	hits[30] 	3539
scalar tree_4_3_u10_r5_network.node[30].content_store 	misses[30] 	8590
scalar tree_4_3_u10_r5_network.node[30].content_store 	decision_yes[30] 	22
scalar tree_4_3_u10_r5_network.node[30].content_store 	decision_no[30] 	8568
scalar tree_4_3_u10_r5_network.node[30].content_store 	decision_ratio[30] 	0.0025611175785797
scalar tree_4_3_u10_r5_network.node[31].core_layer 	interests[31] 	12432
scalar tree_4_3_u10_r5_network.node[31].core_layer 	data[31] 	8726
scalar tree_4_3_u10_r5_network.node[31].content_store 	p_hit[31] 	0.29810167310167
scalar tree_4_3_u10_r5_network.node[31].content_store 	hits[31] 	3706
scalar tree_4_3_u10_r5_network.node[31].content_store 	misses[31] 	8726
scalar tree_4_3_u10_r5_network.node[31].content_store 	decision_yes[31] 	21
scalar tree_4_3_u10_r5_network.node[31].content_store 	decision_no[31] 	8705
scalar tree_4_3_u10_r5_network.node[31].content_store 	decision_ratio[31] 	0.0024066009626404
scalar tree_4_3_u10_r5_network.node[32].core_layer 	interests[32] 	12749
scalar tree_4_3_u10_r5_network.node[32].core_layer 	data[32] 	8793
scalar tree_4_3_u10_r5_network.node[32].content_store 	p_hit[32] 	0.31029884696839
scalar tree_4_3_u10_r5_network.node[32].content_store 	hits[32] 	3956
scalar tree_4_3_u10_r5_network.node[32].content_store 	misses[32] 	8793
scalar tree_4_3_u10_r5_network.node[32].content_store 	decision_yes[32] 	19
scalar tree_4_3_u10_r5_network.node[32].content_store 	decision_no[32] 	8774
scalar tree_4_3_u10_r5_network.node[32].content_store 	decision_ratio[32] 	0.0021608097350165
scalar tree_4_3_u10_r5_network.node[33].core_layer 	interests[33] 	13050
scalar tree_4_3_u10_r5_network.node[33].core_layer 	data[33] 	8978
scalar tree_4_3_u10_r5_network.node[33].content_store 	p_hit[33] 	0.31195402298851
scalar tree_4_3_u10_r5_network.node[33].content_store 	hits[33] 	4071
scalar tree_4_3_u10_r5_network.node[33].content_store 	misses[33] 	8979
scalar tree_4_3_u10_r5_network.node[33].content_store 	decision_yes[33] 	42
scalar tree_4_3_u10_r5_network.node[33].content_store 	decision_no[33] 	8936
scalar tree_4_3_u10_r5_network.node[33].content_store 	decision_ratio[33] 	0.0046781020271775
scalar tree_4_3_u10_r5_network.node[34].core_layer 	interests[34] 	12581
scalar tree_4_3_u10_r5_network.node[34].core_layer 	data[34] 	8722
scalar tree_4_3_u10_r5_network.node[34].content_store 	p_hit[34] 	0.30673237421509
scalar tree_4_3_u10_r5_network.node[34].content_store 	hits[34] 	3859
scalar tree_4_3_u10_r5_network.node[34].content_store 	misses[34] 	8722
scalar tree_4_3_u10_r5_network.node[34].content_store 	decision_yes[34] 	25
scalar tree_4_3_u10_r5_network.node[34].content_store 	decision_no[34] 	8697
scalar tree_4_3_u10_r5_network.node[34].content_store 	decision_ratio[34] 	0.002866315065352
scalar tree_4_3_u10_r5_network.node[35].core_layer 	interests[35] 	12364
scalar tree_4_3_u10_r5_network.node[35].core_layer 	data[35] 	8829
scalar tree_4_3_u10_r5_network.node[35].content_store 	p_hit[35] 	0.28591070850857
scalar tree_4_3_u10_r5_network.node[35].content_store 	hits[35] 	3535
scalar tree_4_3_u10_r5_network.node[35].content_store 	misses[35] 	8829
scalar tree_4_3_u10_r5_network.node[35].content_store 	decision_yes[35] 	23
scalar tree_4_3_u10_r5_network.node[35].content_store 	decision_no[35] 	8806
scalar tree_4_3_u10_r5_network.node[35].content_store 	decision_ratio[35] 	0.0026050515347151
scalar tree_4_3_u10_r5_network.node[36].core_layer 	interests[36] 	12672
scalar tree_4_3_u10_r5_network.node[36].core_layer 	data[36] 	8811
scalar tree_4_3_u10_r5_network.node[36].content_store 	p_hit[36] 	0.3046875
scalar tree_4_3_u10_r5_network.node[36].content_store 	hits[36] 	3861
scalar tree_4_3_u10_r5_network.node[36].content_store 	misses[36] 	8811
scalar tree_4_3_u10_r5_network.node[36].content_store 	decision_yes[36] 	20
scalar tree_4_3_u10_r5_network.node[36].content_store 	decision_no[36] 	8791
scalar tree_4_3_u10_r5_network.node[36].content_store 	decision_ratio[36] 	0.0022698899103393
scalar tree_4_3_u10_r5_network.node[37].core_layer 	interests[37] 	12801
scalar tree_4_3_u10_r5_network.node[37].core_layer 	data[37] 	8813
scalar tree_4_3_u10_r5_network.node[37].content_store 	p_hit[37] 	0.31153816108117
scalar tree_4_3_u10_r5_network.node[37].content_store 	hits[37] 	3988
scalar tree_4_3_u10_r5_network.node[37].content_store 	misses[37] 	8813
scalar tree_4_3_u10_r5_network.node[37].content_store 	decision_yes[37] 	17
scalar tree_4_3_u10_r5_network.node[37].content_store 	decision_no[37] 	8796
scalar tree_4_3_u10_r5_network.node[37].content_store 	decision_ratio[37] 	0.0019289685691592
scalar tree_4_3_u10_r5_network.node[38].core_layer 	interests[38] 	12688
scalar tree_4_3_u10_r5_network.node[38].core_layer 	data[38] 	8799
scalar tree_4_3_u10_r5_network.node[38].content_store 	p_hit[38] 	0.30643127364439
scalar tree_4_3_u10_r5_network.node[38].content_store 	hits[38] 	3888
scalar tree_4_3_u10_r5_network.node[38].content_store 	misses[38] 	8800
scalar tree_4_3_u10_r5_network.node[38].content_store 	decision_yes[38] 	25
scalar tree_4_3_u10_r5_network.node[38].content_store 	decision_no[38] 	8774
scalar tree_4_3_u10_r5_network.node[38].content_store 	decision_ratio[38] 	0.0028412319581771
scalar tree_4_3_u10_r5_network.node[39].core_layer 	interests[39] 	12191
scalar tree_4_3_u10_r5_network.node[39].core_layer 	data[39] 	8629
scalar tree_4_3_u10_r5_network.node[39].content_store 	p_hit[39] 	0.29218275777213
scalar tree_4_3_u10_r5_network.node[39].content_store 	hits[39] 	3562
scalar tree_4_3_u10_r5_network.node[39].content_store 	misses[39] 	8629
scalar tree_4_3_u10_r5_network.node[39].content_store 	decision_yes[39] 	25
scalar tree_4_3_u10_r5_network.node[39].content_store 	decision_no[39] 	8604
scalar tree_4_3_u10_r5_network.node[39].content_store 	decision_ratio[39] 	0.002897207092363
scalar tree_4_3_u10_r5_network.client[13] 	hdistance[13] 	2.6365470286627
scalar tree_4_3_u10_r5_network.client[13] 	downloads[13] 	11897
scalar tree_4_3_u10_r5_network.client[13] 	avg_time[13] 	0.004158282269
scalar tree_4_3_u10_r5_network.client[14] 	hdistance[14] 	2.5634690324185
scalar tree_4_3_u10_r5_network.client[14] 	downloads[14] 	12061
scalar tree_4_3_u10_r5_network.client[14] 	avg_time[14] 	0.004038136457
scalar tree_4_3_u10_r5_network.client[15] 	hdistance[15] 	2.550568371782
scalar tree_4_3_u10_r5_network.client[15] 	downloads[15] 	11964
scalar tree_4_3_u10_r5_network.client[15] 	avg_time[15] 	0.004007938001
scalar tree_4_3_u10_r5_network.client[16] 	hdistance[16] 	2.5300788954635
scalar tree_4_3_u10_r5_network.client[16] 	downloads[16] 	12168
scalar tree_4_3_u10_r5_network.client[16] 	avg_time[16] 	0.003980273106
scalar tree_4_3_u10_r5_network.client[17] 	hdistance[17] 	2.6085185813677
scalar tree_4_3_u10_r5_network.client[17] 	downloads[17] 	11786
scalar tree_4_3_u10_r5_network.client[17] 	avg_time[17] 	0.004126078872
scalar tree_4_3_u10_r5_network.client[18] 	hdistance[18] 	2.5717473962638
scalar tree_4_3_u10_r5_network.client[18] 	downloads[18] 	12098
scalar tree_4_3_u10_r5_network.client[18] 	avg_time[18] 	0.004048492577
scalar tree_4_3_u10_r5_network.client[19] 	hdistance[19] 	2.5212171738224
scalar tree_4_3_u10_r5_network.client[19] 	downloads[19] 	11995
scalar tree_4_3_u10_r5_network.client[19] 	avg_time[19] 	0.003968317171
scalar tree_4_3_u10_r5_network.client[20] 	hdistance[20] 	2.5488422275708
scalar tree_4_3_u10_r5_network.client[20] 	downloads[20] 	12049
scalar tree_4_3_u10_r5_network.client[20] 	avg_time[20] 	0.003998026105
scalar tree_4_3_u10_r5_network.client[21] 	hdistance[21] 	2.6063191687083
scalar tree_4_3_u10_r5_network.client[21] 	downloads[21] 	11837
scalar tree_4_3_u10_r5_network.client[21] 	avg_time[21] 	0.004120635677
scalar tree_4_3_u10_r5_network.client[22] 	hdistance[22] 	2.6166136857955
scalar tree_4_3_u10_r5_network.client[22] 	downloads[22] 	11954
scalar tree_4_3_u10_r5_network.client[22] 	avg_time[22] 	0.004139364588
scalar tree_4_3_u10_r5_network.client[23] 	hdistance[23] 	2.5412797992472
scalar tree_4_3_u10_r5_network.client[23] 	downloads[23] 	11955
scalar tree_4_3_u10_r5_network.client[23] 	avg_time[23] 	0.004007357933
scalar tree_4_3_u10_r5_network.client[24] 	hdistance[24] 	2.553982883476
scalar tree_4_3_u10_r5_network.client[24] 	downloads[24] 	12152
scalar tree_4_3_u10_r5_network.client[24] 	avg_time[24] 	0.004017936388
scalar tree_4_3_u10_r5_network.client[25] 	hdistance[25] 	2.5537300922045
scalar tree_4_3_u10_r5_network.client[25] 	downloads[25] 	11930
scalar tree_4_3_u10_r5_network.client[25] 	avg_time[25] 	0.004026652512
scalar tree_4_3_u10_r5_network.client[26] 	hdistance[26] 	2.5943427346198
scalar tree_4_3_u10_r5_network.client[26] 	downloads[26] 	12126
scalar tree_4_3_u10_r5_network.client[26] 	avg_time[26] 	0.004069030913
scalar tree_4_3_u10_r5_network.client[27] 	hdistance[27] 	2.549738654277
scalar tree_4_3_u10_r5_network.client[27] 	downloads[27] 	12053
scalar tree_4_3_u10_r5_network.client[27] 	avg_time[27] 	0.004005638747
scalar tree_4_3_u10_r5_network.client[28] 	hdistance[28] 	2.5376638460262
scalar tree_4_3_u10_r5_network.client[28] 	downloads[28] 	12054
scalar tree_4_3_u10_r5_network.client[28] 	avg_time[28] 	0.004000648228
scalar tree_4_3_u10_r5_network.client[29] 	hdistance[29] 	2.5294656234393
scalar tree_4_3_u10_r5_network.client[29] 	downloads[29] 	12014
scalar tree_4_3_u10_r5_network.client[29] 	avg_time[29] 	0.003974360224
scalar tree_4_3_u10_r5_network.client[30] 	hdistance[30] 	2.5729597434383
scalar tree_4_3_u10_r5_network.client[30] 	downloads[30] 	11849
scalar tree_4_3_u10_r5_network.client[30] 	avg_time[30] 	0.004062618388
scalar tree_4_3_u10_r5_network.client[31] 	hdistance[31] 	2.6083793276468
scalar tree_4_3_u10_r5_network.client[31] 	downloads[31] 	11958
scalar tree_4_3_u10_r5_network.client[31] 	avg_time[31] 	0.004126105049
scalar tree_4_3_u10_r5_network.client[32] 	hdistance[32] 	2.5492674759314
scalar tree_4_3_u10_r5_network.client[32] 	downloads[32] 	11945
scalar tree_4_3_u10_r5_network.client[32] 	avg_time[32] 	0.004013438443
scalar tree_4_3_u10_r5_network.client[33] 	hdistance[33] 	2.5404543968617
scalar tree_4_3_u10_r5_network.client[33] 	downloads[33] 	12236
scalar tree_4_3_u10_r5_network.client[33] 	avg_time[33] 	0.004004573607
scalar tree_4_3_u10_r5_network.client[34] 	hdistance[34] 	2.5504927145624
scalar tree_4_3_u10_r5_network.client[34] 	downloads[34] 	11873
scalar tree_4_3_u10_r5_network.client[34] 	avg_time[34] 	0.004021053207
scalar tree_4_3_u10_r5_network.client[35] 	hdistance[35] 	2.6361441771414
scalar tree_4_3_u10_r5_network.client[35] 	downloads[35] 	12013
scalar tree_4_3_u10_r5_network.client[35] 	avg_time[35] 	0.004152541014
scalar tree_4_3_u10_r5_network.client[36] 	hdistance[36] 	2.5700825481531
scalar tree_4_3_u10_r5_network.client[36] 	downloads[36] 	11993
scalar tree_4_3_u10_r5_network.client[36] 	avg_time[36] 	0.004039686843
scalar tree_4_3_u10_r5_network.client[37] 	hdistance[37] 	2.5577532966116
scalar tree_4_3_u10_r5_network.client[37] 	downloads[37] 	11982
scalar tree_4_3_u10_r5_network.client[37] 	avg_time[37] 	0.004024867627
scalar tree_4_3_u10_r5_network.client[38] 	hdistance[38] 	2.5473466003317
scalar tree_4_3_u10_r5_network.client[38] 	downloads[38] 	12060
scalar tree_4_3_u10_r5_network.client[38] 	avg_time[38] 	0.004009118038
scalar tree_4_3_u10_r5_network.client[39] 	hdistance[39] 	2.6319637005294
scalar tree_4_3_u10_r5_network.client[39] 	downloads[39] 	11901
scalar tree_4_3_u10_r5_network.client[39] 	avg_time[39] 	0.004111416265
