version 2
run General-200-20160903-01:13:15-4279
attr a 0.9
attr cd ffc0.2
attr configname General
attr cr lru
attr datetime 20160903-01:13:15
attr experiment General
attr fsize 1
attr inifile hw5115/scenario_Y/omnetp.ini
attr iterationvars "$name=tree_4_3, $un=10, $rep=1, $cd=ffc0.2, $cr=lru, $fsize=1, $a=0.9, $sl=nrr, $ttl=1000, $variance=0.05"
attr iterationvars2 "$name=tree_4_3, $un=10, $rep=1, $cd=ffc0.2, $cr=lru, $fsize=1, $a=0.9, $sl=nrr, $ttl=1000, $variance=0.05, $repetition=0"
attr measurement "$name=tree_4_3, $un=10, $rep=1, $cd=ffc0.2, $cr=lru, $fsize=1, $a=0.9, $sl=nrr, $ttl=1000, $variance=0.05"
attr name tree_4_3
attr network networks.${name}_u${un}_r${rep}_network
attr processid 4279
attr rep 1
attr repetition 0
attr replication #0
attr resultdir results
attr runnumber 200
attr seedset 1
attr sl nrr
attr ttl 1000
attr un 10
attr variance 0.05

scalar . 	a 	0.9
scalar . 	fsize 	1
scalar . 	rep 	1
scalar . 	ttl 	1000
scalar . 	un 	10
scalar . 	variance 	0.05
scalar tree_4_3_u10_r1_network.content_distribution 	repo-0 	0
scalar tree_4_3_u10_r1_network.content_distribution 	client-0 	13
scalar tree_4_3_u10_r1_network.content_distribution 	client-1 	14
scalar tree_4_3_u10_r1_network.content_distribution 	client-2 	15
scalar tree_4_3_u10_r1_network.content_distribution 	client-3 	16
scalar tree_4_3_u10_r1_network.content_distribution 	client-4 	17
scalar tree_4_3_u10_r1_network.content_distribution 	client-5 	18
scalar tree_4_3_u10_r1_network.content_distribution 	client-6 	19
scalar tree_4_3_u10_r1_network.content_distribution 	client-7 	20
scalar tree_4_3_u10_r1_network.content_distribution 	client-8 	21
scalar tree_4_3_u10_r1_network.content_distribution 	client-9 	22
scalar tree_4_3_u10_r1_network.content_distribution 	client-10 	23
scalar tree_4_3_u10_r1_network.content_distribution 	client-11 	24
scalar tree_4_3_u10_r1_network.content_distribution 	client-12 	25
scalar tree_4_3_u10_r1_network.content_distribution 	client-13 	26
scalar tree_4_3_u10_r1_network.content_distribution 	client-14 	27
scalar tree_4_3_u10_r1_network.content_distribution 	client-15 	28
scalar tree_4_3_u10_r1_network.content_distribution 	client-16 	29
scalar tree_4_3_u10_r1_network.content_distribution 	client-17 	30
scalar tree_4_3_u10_r1_network.content_distribution 	client-18 	31
scalar tree_4_3_u10_r1_network.content_distribution 	client-19 	32
scalar tree_4_3_u10_r1_network.content_distribution 	client-20 	33
scalar tree_4_3_u10_r1_network.content_distribution 	client-21 	34
scalar tree_4_3_u10_r1_network.content_distribution 	client-22 	35
scalar tree_4_3_u10_r1_network.content_distribution 	client-23 	36
scalar tree_4_3_u10_r1_network.content_distribution 	client-24 	37
scalar tree_4_3_u10_r1_network.content_distribution 	client-25 	38
scalar tree_4_3_u10_r1_network.content_distribution 	client-26 	39
scalar tree_4_3_u10_r1_network.content_distribution 	repo-0_card 	100000
scalar tree_4_3_u10_r1_network.content_distribution 	repo-0_price 	0
scalar tree_4_3_u10_r1_network.statistics 	stabilization_time 	2366.6
scalar tree_4_3_u10_r1_network.statistics 	p_hit 	0.24846214541824
scalar tree_4_3_u10_r1_network.statistics 	interests 	24441.125
scalar tree_4_3_u10_r1_network.statistics 	data 	16362.95
scalar tree_4_3_u10_r1_network.statistics 	hdistance 	2.5708332946304
scalar tree_4_3_u10_r1_network.statistics 	avg_time 	0.004051341272
scalar tree_4_3_u10_r1_network.statistics 	downloads 	323114
scalar tree_4_3_u10_r1_network.statistics 	total_cost 	0
scalar tree_4_3_u10_r1_network.statistics 	total_replicas 	100000
scalar tree_4_3_u10_r1_network.statistics 	inner_hit 	0.45484565818875
scalar tree_4_3_u10_r1_network.node[0].core_layer 	interests[0] 	179064
scalar tree_4_3_u10_r1_network.node[0].core_layer 	repo_load[0] 	176147
scalar tree_4_3_u10_r1_network.node[0].core_layer 	data[0] 	0
scalar tree_4_3_u10_r1_network.node[0].core_layer 	repo_int[0] 	176147
scalar tree_4_3_u10_r1_network.node[0].content_store 	p_hit[0] 	0.016290264933208
scalar tree_4_3_u10_r1_network.node[0].content_store 	hits[0] 	2917
scalar tree_4_3_u10_r1_network.node[0].content_store 	misses[0] 	176147
scalar tree_4_3_u10_r1_network.node[0].content_store 	decision_yes[0] 	127
scalar tree_4_3_u10_r1_network.node[0].content_store 	decision_no[0] 	176020
scalar tree_4_3_u10_r1_network.node[0].content_store 	decision_ratio[0] 	0.00072098871964893
scalar tree_4_3_u10_r1_network.node[1].core_layer 	interests[1] 	135841
scalar tree_4_3_u10_r1_network.node[1].core_layer 	data[1] 	132748
scalar tree_4_3_u10_r1_network.node[1].content_store 	p_hit[1] 	0.022747182367621
scalar tree_4_3_u10_r1_network.node[1].content_store 	hits[1] 	3090
scalar tree_4_3_u10_r1_network.node[1].content_store 	misses[1] 	132751
scalar tree_4_3_u10_r1_network.node[1].content_store 	decision_yes[1] 	147
scalar tree_4_3_u10_r1_network.node[1].content_store 	decision_no[1] 	132601
scalar tree_4_3_u10_r1_network.node[1].content_store 	decision_ratio[1] 	0.001107361316178
scalar tree_4_3_u10_r1_network.node[2].core_layer 	interests[2] 	55683
scalar tree_4_3_u10_r1_network.node[2].core_layer 	data[2] 	51960
scalar tree_4_3_u10_r1_network.node[2].content_store 	p_hit[2] 	0.066860621733743
scalar tree_4_3_u10_r1_network.node[2].content_store 	hits[2] 	3723
scalar tree_4_3_u10_r1_network.node[2].content_store 	misses[2] 	51960
scalar tree_4_3_u10_r1_network.node[2].content_store 	decision_yes[2] 	73
scalar tree_4_3_u10_r1_network.node[2].content_store 	decision_no[2] 	51887
scalar tree_4_3_u10_r1_network.node[2].content_store 	decision_ratio[2] 	0.0014049268668206
scalar tree_4_3_u10_r1_network.node[3].core_layer 	interests[3] 	13535
scalar tree_4_3_u10_r1_network.node[3].core_layer 	data[3] 	9976
scalar tree_4_3_u10_r1_network.node[3].content_store 	p_hit[3] 	0.26294791281862
scalar tree_4_3_u10_r1_network.node[3].content_store 	hits[3] 	3559
scalar tree_4_3_u10_r1_network.node[3].content_store 	misses[3] 	9976
scalar tree_4_3_u10_r1_network.node[3].content_store 	decision_yes[3] 	57
scalar tree_4_3_u10_r1_network.node[3].content_store 	decision_no[3] 	9919
scalar tree_4_3_u10_r1_network.node[3].content_store 	decision_ratio[3] 	0.0057137129109864
scalar tree_4_3_u10_r1_network.node[4].core_layer 	interests[4] 	41589
scalar tree_4_3_u10_r1_network.node[4].core_layer 	data[4] 	38830
scalar tree_4_3_u10_r1_network.node[4].content_store 	p_hit[4] 	0.066339657120873
scalar tree_4_3_u10_r1_network.node[4].content_store 	hits[4] 	2759
scalar tree_4_3_u10_r1_network.node[4].content_store 	misses[4] 	38830
scalar tree_4_3_u10_r1_network.node[4].content_store 	decision_yes[4] 	64
scalar tree_4_3_u10_r1_network.node[4].content_store 	decision_no[4] 	38766
scalar tree_4_3_u10_r1_network.node[4].content_store 	decision_ratio[4] 	0.0016482101467937
scalar tree_4_3_u10_r1_network.node[5].core_layer 	interests[5] 	28901
scalar tree_4_3_u10_r1_network.node[5].core_layer 	data[5] 	25349
scalar tree_4_3_u10_r1_network.node[5].content_store 	p_hit[5] 	0.12293692259783
scalar tree_4_3_u10_r1_network.node[5].content_store 	hits[5] 	3553
scalar tree_4_3_u10_r1_network.node[5].content_store 	misses[5] 	25348
scalar tree_4_3_u10_r1_network.node[5].content_store 	decision_yes[5] 	58
scalar tree_4_3_u10_r1_network.node[5].content_store 	decision_no[5] 	25291
scalar tree_4_3_u10_r1_network.node[5].content_store 	decision_ratio[5] 	0.0022880587005405
scalar tree_4_3_u10_r1_network.node[6].core_layer 	interests[6] 	13479
scalar tree_4_3_u10_r1_network.node[6].core_layer 	data[6] 	10321
scalar tree_4_3_u10_r1_network.node[6].content_store 	p_hit[6] 	0.23429037762445
scalar tree_4_3_u10_r1_network.node[6].content_store 	hits[6] 	3158
scalar tree_4_3_u10_r1_network.node[6].content_store 	misses[6] 	10321
scalar tree_4_3_u10_r1_network.node[6].content_store 	decision_yes[6] 	49
scalar tree_4_3_u10_r1_network.node[6].content_store 	decision_no[6] 	10272
scalar tree_4_3_u10_r1_network.node[6].content_store 	decision_ratio[6] 	0.0047476019765527
scalar tree_4_3_u10_r1_network.node[7].core_layer 	interests[7] 	43906
scalar tree_4_3_u10_r1_network.node[7].core_layer 	data[7] 	40234
scalar tree_4_3_u10_r1_network.node[7].content_store 	p_hit[7] 	0.083610440486494
scalar tree_4_3_u10_r1_network.node[7].content_store 	hits[7] 	3671
scalar tree_4_3_u10_r1_network.node[7].content_store 	misses[7] 	40235
scalar tree_4_3_u10_r1_network.node[7].content_store 	decision_yes[7] 	57
scalar tree_4_3_u10_r1_network.node[7].content_store 	decision_no[7] 	40177
scalar tree_4_3_u10_r1_network.node[7].content_store 	decision_ratio[7] 	0.0014167122334344
scalar tree_4_3_u10_r1_network.node[8].core_layer 	interests[8] 	26962
scalar tree_4_3_u10_r1_network.node[8].core_layer 	data[8] 	24227
scalar tree_4_3_u10_r1_network.node[8].content_store 	p_hit[8] 	0.1014390623841
scalar tree_4_3_u10_r1_network.node[8].content_store 	hits[8] 	2735
scalar tree_4_3_u10_r1_network.node[8].content_store 	misses[8] 	24227
scalar tree_4_3_u10_r1_network.node[8].content_store 	decision_yes[8] 	50
scalar tree_4_3_u10_r1_network.node[8].content_store 	decision_no[8] 	24177
scalar tree_4_3_u10_r1_network.node[8].content_store 	decision_ratio[8] 	0.0020638131010856
scalar tree_4_3_u10_r1_network.node[9].core_layer 	interests[9] 	13782
scalar tree_4_3_u10_r1_network.node[9].core_layer 	data[9] 	10491
scalar tree_4_3_u10_r1_network.node[9].content_store 	p_hit[9] 	0.23878972572921
scalar tree_4_3_u10_r1_network.node[9].content_store 	hits[9] 	3291
scalar tree_4_3_u10_r1_network.node[9].content_store 	misses[9] 	10491
scalar tree_4_3_u10_r1_network.node[9].content_store 	decision_yes[9] 	48
scalar tree_4_3_u10_r1_network.node[9].content_store 	decision_no[9] 	10443
scalar tree_4_3_u10_r1_network.node[9].content_store 	decision_ratio[9] 	0.0045753503002574
scalar tree_4_3_u10_r1_network.node[10].core_layer 	interests[10] 	42869
scalar tree_4_3_u10_r1_network.node[10].core_layer 	data[10] 	39399
scalar tree_4_3_u10_r1_network.node[10].content_store 	p_hit[10] 	0.080874291446033
scalar tree_4_3_u10_r1_network.node[10].content_store 	hits[10] 	3467
scalar tree_4_3_u10_r1_network.node[10].content_store 	misses[10] 	39402
scalar tree_4_3_u10_r1_network.node[10].content_store 	decision_yes[10] 	66
scalar tree_4_3_u10_r1_network.node[10].content_store 	decision_no[10] 	39333
scalar tree_4_3_u10_r1_network.node[10].content_store 	decision_ratio[10] 	0.0016751694205437
scalar tree_4_3_u10_r1_network.node[11].core_layer 	interests[11] 	28895
scalar tree_4_3_u10_r1_network.node[11].core_layer 	data[11] 	25453
scalar tree_4_3_u10_r1_network.node[11].content_store 	p_hit[11] 	0.11912095518256
scalar tree_4_3_u10_r1_network.node[11].content_store 	hits[11] 	3442
scalar tree_4_3_u10_r1_network.node[11].content_store 	misses[11] 	25453
scalar tree_4_3_u10_r1_network.node[11].content_store 	decision_yes[11] 	61
scalar tree_4_3_u10_r1_network.node[11].content_store 	decision_no[11] 	25392
scalar tree_4_3_u10_r1_network.node[11].content_store 	decision_ratio[11] 	0.0023965740777119
scalar tree_4_3_u10_r1_network.node[12].core_layer 	interests[12] 	11796
scalar tree_4_3_u10_r1_network.node[12].core_layer 	data[12] 	8974
scalar tree_4_3_u10_r1_network.node[12].content_store 	p_hit[12] 	0.23923363852153
scalar tree_4_3_u10_r1_network.node[12].content_store 	hits[12] 	2822
scalar tree_4_3_u10_r1_network.node[12].content_store 	misses[12] 	8974
scalar tree_4_3_u10_r1_network.node[12].content_store 	decision_yes[12] 	29
scalar tree_4_3_u10_r1_network.node[12].content_store 	decision_no[12] 	8945
scalar tree_4_3_u10_r1_network.node[12].content_store 	decision_ratio[12] 	0.0032315578337419
scalar tree_4_3_u10_r1_network.node[13].core_layer 	interests[13] 	12436
scalar tree_4_3_u10_r1_network.node[13].core_layer 	data[13] 	8733
scalar tree_4_3_u10_r1_network.node[13].content_store 	p_hit[13] 	0.29776455451914
scalar tree_4_3_u10_r1_network.node[13].content_store 	hits[13] 	3703
scalar tree_4_3_u10_r1_network.node[13].content_store 	misses[13] 	8733
scalar tree_4_3_u10_r1_network.node[13].content_store 	decision_yes[13] 	17
scalar tree_4_3_u10_r1_network.node[13].content_store 	decision_no[13] 	8716
scalar tree_4_3_u10_r1_network.node[13].content_store 	decision_ratio[13] 	0.0019466391847017
scalar tree_4_3_u10_r1_network.node[14].core_layer 	interests[14] 	12957
scalar tree_4_3_u10_r1_network.node[14].core_layer 	data[14] 	8950
scalar tree_4_3_u10_r1_network.node[14].content_store 	p_hit[14] 	0.30925368526665
scalar tree_4_3_u10_r1_network.node[14].content_store 	hits[14] 	4007
scalar tree_4_3_u10_r1_network.node[14].content_store 	misses[14] 	8950
scalar tree_4_3_u10_r1_network.node[14].content_store 	decision_yes[14] 	28
scalar tree_4_3_u10_r1_network.node[14].content_store 	decision_no[14] 	8922
scalar tree_4_3_u10_r1_network.node[14].content_store 	decision_ratio[14] 	0.0031284916201117
scalar tree_4_3_u10_r1_network.node[15].core_layer 	interests[15] 	12780
scalar tree_4_3_u10_r1_network.node[15].core_layer 	data[15] 	8728
scalar tree_4_3_u10_r1_network.node[15].content_store 	p_hit[15] 	0.3170579029734
scalar tree_4_3_u10_r1_network.node[15].content_store 	hits[15] 	4052
scalar tree_4_3_u10_r1_network.node[15].content_store 	misses[15] 	8728
scalar tree_4_3_u10_r1_network.node[15].content_store 	decision_yes[15] 	27
scalar tree_4_3_u10_r1_network.node[15].content_store 	decision_no[15] 	8701
scalar tree_4_3_u10_r1_network.node[15].content_store 	decision_ratio[15] 	0.0030934922089826
scalar tree_4_3_u10_r1_network.node[16].core_layer 	interests[16] 	12802
scalar tree_4_3_u10_r1_network.node[16].core_layer 	data[16] 	8740
scalar tree_4_3_u10_r1_network.node[16].content_store 	p_hit[16] 	0.3172941727855
scalar tree_4_3_u10_r1_network.node[16].content_store 	hits[16] 	4062
scalar tree_4_3_u10_r1_network.node[16].content_store 	misses[16] 	8740
scalar tree_4_3_u10_r1_network.node[16].content_store 	decision_yes[16] 	19
scalar tree_4_3_u10_r1_network.node[16].content_store 	decision_no[16] 	8721
scalar tree_4_3_u10_r1_network.node[16].content_store 	decision_ratio[16] 	0.0021739130434783
scalar tree_4_3_u10_r1_network.node[17].core_layer 	interests[17] 	12298
scalar tree_4_3_u10_r1_network.node[17].core_layer 	data[17] 	8753
scalar tree_4_3_u10_r1_network.node[17].content_store 	p_hit[17] 	0.28825825337453
scalar tree_4_3_u10_r1_network.node[17].content_store 	hits[17] 	3545
scalar tree_4_3_u10_r1_network.node[17].content_store 	misses[17] 	8753
scalar tree_4_3_u10_r1_network.node[17].content_store 	decision_yes[17] 	27
scalar tree_4_3_u10_r1_network.node[17].content_store 	decision_no[17] 	8726
scalar tree_4_3_u10_r1_network.node[17].content_store 	decision_ratio[17] 	0.0030846566891352
scalar tree_4_3_u10_r1_network.node[18].core_layer 	interests[18] 	12573
scalar tree_4_3_u10_r1_network.node[18].core_layer 	data[18] 	8700
scalar tree_4_3_u10_r1_network.node[18].content_store 	p_hit[18] 	0.3079615048119
scalar tree_4_3_u10_r1_network.node[18].content_store 	hits[18] 	3872
scalar tree_4_3_u10_r1_network.node[18].content_store 	misses[18] 	8701
scalar tree_4_3_u10_r1_network.node[18].content_store 	decision_yes[18] 	22
scalar tree_4_3_u10_r1_network.node[18].content_store 	decision_no[18] 	8678
scalar tree_4_3_u10_r1_network.node[18].content_store 	decision_ratio[18] 	0.0025287356321839
scalar tree_4_3_u10_r1_network.node[19].core_layer 	interests[19] 	12857
scalar tree_4_3_u10_r1_network.node[19].core_layer 	data[19] 	8844
scalar tree_4_3_u10_r1_network.node[19].content_store 	p_hit[19] 	0.31197013300148
scalar tree_4_3_u10_r1_network.node[19].content_store 	hits[19] 	4011
scalar tree_4_3_u10_r1_network.node[19].content_store 	misses[19] 	8846
scalar tree_4_3_u10_r1_network.node[19].content_store 	decision_yes[19] 	17
scalar tree_4_3_u10_r1_network.node[19].content_store 	decision_no[19] 	8827
scalar tree_4_3_u10_r1_network.node[19].content_store 	decision_ratio[19] 	0.0019222071460877
scalar tree_4_3_u10_r1_network.node[20].core_layer 	interests[20] 	12786
scalar tree_4_3_u10_r1_network.node[20].core_layer 	data[20] 	8878
scalar tree_4_3_u10_r1_network.node[20].content_store 	p_hit[20] 	0.30572501173158
scalar tree_4_3_u10_r1_network.node[20].content_store 	hits[20] 	3909
scalar tree_4_3_u10_r1_network.node[20].content_store 	misses[20] 	8877
scalar tree_4_3_u10_r1_network.node[20].content_store 	decision_yes[20] 	20
scalar tree_4_3_u10_r1_network.node[20].content_store 	decision_no[20] 	8858
scalar tree_4_3_u10_r1_network.node[20].content_store 	decision_ratio[20] 	0.0022527596305474
scalar tree_4_3_u10_r1_network.node[21].core_layer 	interests[21] 	12288
scalar tree_4_3_u10_r1_network.node[21].core_layer 	data[21] 	8670
scalar tree_4_3_u10_r1_network.node[21].content_store 	p_hit[21] 	0.29443359375
scalar tree_4_3_u10_r1_network.node[21].content_store 	hits[21] 	3618
scalar tree_4_3_u10_r1_network.node[21].content_store 	misses[21] 	8670
scalar tree_4_3_u10_r1_network.node[21].content_store 	decision_yes[21] 	20
scalar tree_4_3_u10_r1_network.node[21].content_store 	decision_no[21] 	8650
scalar tree_4_3_u10_r1_network.node[21].content_store 	decision_ratio[21] 	0.0023068050749712
scalar tree_4_3_u10_r1_network.node[22].core_layer 	interests[22] 	12392
scalar tree_4_3_u10_r1_network.node[22].core_layer 	data[22] 	8672
scalar tree_4_3_u10_r1_network.node[22].content_store 	p_hit[22] 	0.30003227888961
scalar tree_4_3_u10_r1_network.node[22].content_store 	hits[22] 	3718
scalar tree_4_3_u10_r1_network.node[22].content_store 	misses[22] 	8674
scalar tree_4_3_u10_r1_network.node[22].content_store 	decision_yes[22] 	17
scalar tree_4_3_u10_r1_network.node[22].content_store 	decision_no[22] 	8655
scalar tree_4_3_u10_r1_network.node[22].content_store 	decision_ratio[22] 	0.001960332103321
scalar tree_4_3_u10_r1_network.node[23].core_layer 	interests[23] 	12683
scalar tree_4_3_u10_r1_network.node[23].core_layer 	data[23] 	8727
scalar tree_4_3_u10_r1_network.node[23].content_store 	p_hit[23] 	0.31191358511393
scalar tree_4_3_u10_r1_network.node[23].content_store 	hits[23] 	3956
scalar tree_4_3_u10_r1_network.node[23].content_store 	misses[23] 	8727
scalar tree_4_3_u10_r1_network.node[23].content_store 	decision_yes[23] 	17
scalar tree_4_3_u10_r1_network.node[23].content_store 	decision_no[23] 	8710
scalar tree_4_3_u10_r1_network.node[23].content_store 	decision_ratio[23] 	0.0019479775409648
scalar tree_4_3_u10_r1_network.node[24].core_layer 	interests[24] 	12973
scalar tree_4_3_u10_r1_network.node[24].core_layer 	data[24] 	8903
scalar tree_4_3_u10_r1_network.node[24].content_store 	p_hit[24] 	0.3137285130656
scalar tree_4_3_u10_r1_network.node[24].content_store 	hits[24] 	4070
scalar tree_4_3_u10_r1_network.node[24].content_store 	misses[24] 	8903
scalar tree_4_3_u10_r1_network.node[24].content_store 	decision_yes[24] 	23
scalar tree_4_3_u10_r1_network.node[24].content_store 	decision_no[24] 	8880
scalar tree_4_3_u10_r1_network.node[24].content_store 	decision_ratio[24] 	0.0025833988543188
scalar tree_4_3_u10_r1_network.node[25].core_layer 	interests[25] 	12960
scalar tree_4_3_u10_r1_network.node[25].core_layer 	data[25] 	8801
scalar tree_4_3_u10_r1_network.node[25].content_store 	p_hit[25] 	0.32091049382716
scalar tree_4_3_u10_r1_network.node[25].content_store 	hits[25] 	4159
scalar tree_4_3_u10_r1_network.node[25].content_store 	misses[25] 	8801
scalar tree_4_3_u10_r1_network.node[25].content_store 	decision_yes[25] 	24
scalar tree_4_3_u10_r1_network.node[25].content_store 	decision_no[25] 	8777
scalar tree_4_3_u10_r1_network.node[25].content_store 	decision_ratio[25] 	0.0027269628451312
scalar tree_4_3_u10_r1_network.node[26].core_layer 	interests[26] 	12440
scalar tree_4_3_u10_r1_network.node[26].core_layer 	data[26] 	8766
scalar tree_4_3_u10_r1_network.node[26].content_store 	p_hit[26] 	0.29533762057878
scalar tree_4_3_u10_r1_network.node[26].content_store 	hits[26] 	3674
scalar tree_4_3_u10_r1_network.node[26].content_store 	misses[26] 	8766
scalar tree_4_3_u10_r1_network.node[26].content_store 	decision_yes[26] 	30
scalar tree_4_3_u10_r1_network.node[26].content_store 	decision_no[26] 	8736
scalar tree_4_3_u10_r1_network.node[26].content_store 	decision_ratio[26] 	0.0034223134839151
scalar tree_4_3_u10_r1_network.node[27].core_layer 	interests[27] 	12920
scalar tree_4_3_u10_r1_network.node[27].core_layer 	data[27] 	8900
scalar tree_4_3_u10_r1_network.node[27].content_store 	p_hit[27] 	0.31114551083591
scalar tree_4_3_u10_r1_network.node[27].content_store 	hits[27] 	4020
scalar tree_4_3_u10_r1_network.node[27].content_store 	misses[27] 	8900
scalar tree_4_3_u10_r1_network.node[27].content_store 	decision_yes[27] 	29
scalar tree_4_3_u10_r1_network.node[27].content_store 	decision_no[27] 	8871
scalar tree_4_3_u10_r1_network.node[27].content_store 	decision_ratio[27] 	0.0032584269662921
scalar tree_4_3_u10_r1_network.node[28].core_layer 	interests[28] 	13047
scalar tree_4_3_u10_r1_network.node[28].core_layer 	data[28] 	8826
scalar tree_4_3_u10_r1_network.node[28].content_store 	p_hit[28] 	0.32344600291255
scalar tree_4_3_u10_r1_network.node[28].content_store 	hits[28] 	4220
scalar tree_4_3_u10_r1_network.node[28].content_store 	misses[28] 	8827
scalar tree_4_3_u10_r1_network.node[28].content_store 	decision_yes[28] 	24
scalar tree_4_3_u10_r1_network.node[28].content_store 	decision_no[28] 	8802
scalar tree_4_3_u10_r1_network.node[28].content_store 	decision_ratio[28] 	0.0027192386131883
scalar tree_4_3_u10_r1_network.node[29].core_layer 	interests[29] 	12761
scalar tree_4_3_u10_r1_network.node[29].core_layer 	data[29] 	8687
scalar tree_4_3_u10_r1_network.node[29].content_store 	p_hit[29] 	0.31925397696105
scalar tree_4_3_u10_r1_network.node[29].content_store 	hits[29] 	4074
scalar tree_4_3_u10_r1_network.node[29].content_store 	misses[29] 	8687
scalar tree_4_3_u10_r1_network.node[29].content_store 	decision_yes[29] 	24
scalar tree_4_3_u10_r1_network.node[29].content_store 	decision_no[29] 	8663
scalar tree_4_3_u10_r1_network.node[29].content_store 	decision_ratio[29] 	0.0027627489351905
scalar tree_4_3_u10_r1_network.node[30].core_layer 	interests[30] 	12244
scalar tree_4_3_u10_r1_network.node[30].core_layer 	data[30] 	8679
scalar tree_4_3_u10_r1_network.node[30].content_store 	p_hit[30] 	0.29108134596537
scalar tree_4_3_u10_r1_network.node[30].content_store 	hits[30] 	3564
scalar tree_4_3_u10_r1_network.node[30].content_store 	misses[30] 	8680
scalar tree_4_3_u10_r1_network.node[30].content_store 	decision_yes[30] 	21
scalar tree_4_3_u10_r1_network.node[30].content_store 	decision_no[30] 	8658
scalar tree_4_3_u10_r1_network.node[30].content_store 	decision_ratio[30] 	0.0024196335983408
scalar tree_4_3_u10_r1_network.node[31].core_layer 	interests[31] 	12242
scalar tree_4_3_u10_r1_network.node[31].core_layer 	data[31] 	8637
scalar tree_4_3_u10_r1_network.node[31].content_store 	p_hit[31] 	0.29431465446822
scalar tree_4_3_u10_r1_network.node[31].content_store 	hits[31] 	3603
scalar tree_4_3_u10_r1_network.node[31].content_store 	misses[31] 	8639
scalar tree_4_3_u10_r1_network.node[31].content_store 	decision_yes[31] 	26
scalar tree_4_3_u10_r1_network.node[31].content_store 	decision_no[31] 	8611
scalar tree_4_3_u10_r1_network.node[31].content_store 	decision_ratio[31] 	0.0030103045038787
scalar tree_4_3_u10_r1_network.node[32].core_layer 	interests[32] 	12697
scalar tree_4_3_u10_r1_network.node[32].core_layer 	data[32] 	8734
scalar tree_4_3_u10_r1_network.node[32].content_store 	p_hit[32] 	0.3121209734583
scalar tree_4_3_u10_r1_network.node[32].content_store 	hits[32] 	3963
scalar tree_4_3_u10_r1_network.node[32].content_store 	misses[32] 	8734
scalar tree_4_3_u10_r1_network.node[32].content_store 	decision_yes[32] 	25
scalar tree_4_3_u10_r1_network.node[32].content_store 	decision_no[32] 	8709
scalar tree_4_3_u10_r1_network.node[32].content_store 	decision_ratio[32] 	0.0028623769177925
scalar tree_4_3_u10_r1_network.node[33].core_layer 	interests[33] 	12668
scalar tree_4_3_u10_r1_network.node[33].core_layer 	data[33] 	8676
scalar tree_4_3_u10_r1_network.node[33].content_store 	p_hit[33] 	0.31512472371329
scalar tree_4_3_u10_r1_network.node[33].content_store 	hits[33] 	3992
scalar tree_4_3_u10_r1_network.node[33].content_store 	misses[33] 	8676
scalar tree_4_3_u10_r1_network.node[33].content_store 	decision_yes[33] 	23
scalar tree_4_3_u10_r1_network.node[33].content_store 	decision_no[33] 	8653
scalar tree_4_3_u10_r1_network.node[33].content_store 	decision_ratio[33] 	0.0026509912402029
scalar tree_4_3_u10_r1_network.node[34].core_layer 	interests[34] 	12748
scalar tree_4_3_u10_r1_network.node[34].core_layer 	data[34] 	8756
scalar tree_4_3_u10_r1_network.node[34].content_store 	p_hit[34] 	0.31314716033888
scalar tree_4_3_u10_r1_network.node[34].content_store 	hits[34] 	3992
scalar tree_4_3_u10_r1_network.node[34].content_store 	misses[34] 	8756
scalar tree_4_3_u10_r1_network.node[34].content_store 	decision_yes[34] 	26
scalar tree_4_3_u10_r1_network.node[34].content_store 	decision_no[34] 	8730
scalar tree_4_3_u10_r1_network.node[34].content_store 	decision_ratio[34] 	0.0029693924166286
scalar tree_4_3_u10_r1_network.node[35].core_layer 	interests[35] 	12407
scalar tree_4_3_u10_r1_network.node[35].core_layer 	data[35] 	8775
scalar tree_4_3_u10_r1_network.node[35].content_store 	p_hit[35] 	0.29265737083904
scalar tree_4_3_u10_r1_network.node[35].content_store 	hits[35] 	3631
scalar tree_4_3_u10_r1_network.node[35].content_store 	misses[35] 	8776
scalar tree_4_3_u10_r1_network.node[35].content_store 	decision_yes[35] 	23
scalar tree_4_3_u10_r1_network.node[35].content_store 	decision_no[35] 	8752
scalar tree_4_3_u10_r1_network.node[35].content_store 	decision_ratio[35] 	0.0026210826210826
scalar tree_4_3_u10_r1_network.node[36].core_layer 	interests[36] 	12684
scalar tree_4_3_u10_r1_network.node[36].core_layer 	data[36] 	8798
scalar tree_4_3_u10_r1_network.node[36].content_store 	p_hit[36] 	0.30637023021129
scalar tree_4_3_u10_r1_network.node[36].content_store 	hits[36] 	3886
scalar tree_4_3_u10_r1_network.node[36].content_store 	misses[36] 	8798
scalar tree_4_3_u10_r1_network.node[36].content_store 	decision_yes[36] 	31
scalar tree_4_3_u10_r1_network.node[36].content_store 	decision_no[36] 	8767
scalar tree_4_3_u10_r1_network.node[36].content_store 	decision_ratio[36] 	0.0035235280745624
scalar tree_4_3_u10_r1_network.node[37].core_layer 	interests[37] 	12837
scalar tree_4_3_u10_r1_network.node[37].core_layer 	data[37] 	8774
scalar tree_4_3_u10_r1_network.node[37].content_store 	p_hit[37] 	0.31650697203396
scalar tree_4_3_u10_r1_network.node[37].content_store 	hits[37] 	4063
scalar tree_4_3_u10_r1_network.node[37].content_store 	misses[37] 	8774
scalar tree_4_3_u10_r1_network.node[37].content_store 	decision_yes[37] 	22
scalar tree_4_3_u10_r1_network.node[37].content_store 	decision_no[37] 	8752
scalar tree_4_3_u10_r1_network.node[37].content_store 	decision_ratio[37] 	0.0025074082516526
scalar tree_4_3_u10_r1_network.node[38].core_layer 	interests[38] 	12674
scalar tree_4_3_u10_r1_network.node[38].core_layer 	data[38] 	8833
scalar tree_4_3_u10_r1_network.node[38].content_store 	p_hit[38] 	0.30306138551365
scalar tree_4_3_u10_r1_network.node[38].content_store 	hits[38] 	3841
scalar tree_4_3_u10_r1_network.node[38].content_store 	misses[38] 	8833
scalar tree_4_3_u10_r1_network.node[38].content_store 	decision_yes[38] 	21
scalar tree_4_3_u10_r1_network.node[38].content_store 	decision_no[38] 	8812
scalar tree_4_3_u10_r1_network.node[38].content_store 	decision_ratio[38] 	0.0023774482055927
scalar tree_4_3_u10_r1_network.node[39].core_layer 	interests[39] 	12189
scalar tree_4_3_u10_r1_network.node[39].core_layer 	data[39] 	8616
scalar tree_4_3_u10_r1_network.node[39].content_store 	p_hit[39] 	0.29313315284273
scalar tree_4_3_u10_r1_network.node[39].content_store 	hits[39] 	3573
scalar tree_4_3_u10_r1_network.node[39].content_store 	misses[39] 	8616
scalar tree_4_3_u10_r1_network.node[39].content_store 	decision_yes[39] 	21
scalar tree_4_3_u10_r1_network.node[39].content_store 	decision_no[39] 	8595
scalar tree_4_3_u10_r1_network.node[39].content_store 	decision_ratio[39] 	0.0024373259052925
scalar tree_4_3_u10_r1_network.client[13] 	hdistance[13] 	2.6281795511222
scalar tree_4_3_u10_r1_network.client[13] 	downloads[13] 	12030
scalar tree_4_3_u10_r1_network.client[13] 	avg_time[13] 	0.004128824268
scalar tree_4_3_u10_r1_network.client[14] 	hdistance[14] 	2.5866897290174
scalar tree_4_3_u10_r1_network.client[14] 	downloads[14] 	12141
scalar tree_4_3_u10_r1_network.client[14] 	avg_time[14] 	0.00407116079
scalar tree_4_3_u10_r1_network.client[15] 	hdistance[15] 	2.5386282190182
scalar tree_4_3_u10_r1_network.client[15] 	downloads[15] 	11999
scalar tree_4_3_u10_r1_network.client[15] 	avg_time[15] 	0.003995329979
scalar tree_4_3_u10_r1_network.client[16] 	hdistance[16] 	2.5530726256983
scalar tree_4_3_u10_r1_network.client[16] 	downloads[16] 	11993
scalar tree_4_3_u10_r1_network.client[16] 	avg_time[16] 	0.00401984193
scalar tree_4_3_u10_r1_network.client[17] 	hdistance[17] 	2.61337233598
scalar tree_4_3_u10_r1_network.client[17] 	downloads[17] 	11965
scalar tree_4_3_u10_r1_network.client[17] 	avg_time[17] 	0.004129207234
scalar tree_4_3_u10_r1_network.client[18] 	hdistance[18] 	2.5395677403078
scalar tree_4_3_u10_r1_network.client[18] 	downloads[18] 	11891
scalar tree_4_3_u10_r1_network.client[18] 	avg_time[18] 	0.00400302667
scalar tree_4_3_u10_r1_network.client[19] 	hdistance[19] 	2.5559330460723
scalar tree_4_3_u10_r1_network.client[19] 	downloads[19] 	12068
scalar tree_4_3_u10_r1_network.client[19] 	avg_time[19] 	0.004028833594
scalar tree_4_3_u10_r1_network.client[20] 	hdistance[20] 	2.5526621330237
scalar tree_4_3_u10_r1_network.client[20] 	downloads[20] 	12058
scalar tree_4_3_u10_r1_network.client[20] 	avg_time[20] 	0.004025706081
scalar tree_4_3_u10_r1_network.client[21] 	hdistance[21] 	2.5955131424745
scalar tree_4_3_u10_r1_network.client[21] 	downloads[21] 	11946
scalar tree_4_3_u10_r1_network.client[21] 	avg_time[21] 	0.004096598378
scalar tree_4_3_u10_r1_network.client[22] 	hdistance[22] 	2.5989530563999
scalar tree_4_3_u10_r1_network.client[22] 	downloads[22] 	11844
scalar tree_4_3_u10_r1_network.client[22] 	avg_time[22] 	0.004124857173
scalar tree_4_3_u10_r1_network.client[23] 	hdistance[23] 	2.5632154668023
scalar tree_4_3_u10_r1_network.client[23] 	downloads[23] 	11793
scalar tree_4_3_u10_r1_network.client[23] 	avg_time[23] 	0.004049687549
scalar tree_4_3_u10_r1_network.client[24] 	hdistance[24] 	2.5615346287992
scalar tree_4_3_u10_r1_network.client[24] 	downloads[24] 	12042
scalar tree_4_3_u10_r1_network.client[24] 	avg_time[24] 	0.004031553159
scalar tree_4_3_u10_r1_network.client[25] 	hdistance[25] 	2.5504472122377
scalar tree_4_3_u10_r1_network.client[25] 	downloads[25] 	11963
scalar tree_4_3_u10_r1_network.client[25] 	avg_time[25] 	0.004021573123
scalar tree_4_3_u10_r1_network.client[26] 	hdistance[26] 	2.630599185573
scalar tree_4_3_u10_r1_network.client[26] 	downloads[26] 	12033
scalar tree_4_3_u10_r1_network.client[26] 	avg_time[26] 	0.004133795682
scalar tree_4_3_u10_r1_network.client[27] 	hdistance[27] 	2.5629696919647
scalar tree_4_3_u10_r1_network.client[27] 	downloads[27] 	12109
scalar tree_4_3_u10_r1_network.client[27] 	avg_time[27] 	0.004027744934
scalar tree_4_3_u10_r1_network.client[28] 	hdistance[28] 	2.5352159468438
scalar tree_4_3_u10_r1_network.client[28] 	downloads[28] 	12040
scalar tree_4_3_u10_r1_network.client[28] 	avg_time[28] 	0.003995337553
scalar tree_4_3_u10_r1_network.client[29] 	hdistance[29] 	2.5520160952301
scalar tree_4_3_u10_r1_network.client[29] 	downloads[29] 	11929
scalar tree_4_3_u10_r1_network.client[29] 	avg_time[29] 	0.004008379985
scalar tree_4_3_u10_r1_network.client[30] 	hdistance[30] 	2.5894728019445
scalar tree_4_3_u10_r1_network.client[30] 	downloads[30] 	11931
scalar tree_4_3_u10_r1_network.client[30] 	avg_time[30] 	0.004096384559
scalar tree_4_3_u10_r1_network.client[31] 	hdistance[31] 	2.600219613143
scalar tree_4_3_u10_r1_network.client[31] 	downloads[31] 	11839
scalar tree_4_3_u10_r1_network.client[31] 	avg_time[31] 	0.004118812066
scalar tree_4_3_u10_r1_network.client[32] 	hdistance[32] 	2.5378482712319
scalar tree_4_3_u10_r1_network.client[32] 	downloads[32] 	11916
scalar tree_4_3_u10_r1_network.client[32] 	avg_time[32] 	0.004003689528
scalar tree_4_3_u10_r1_network.client[33] 	hdistance[33] 	2.5349856685213
scalar tree_4_3_u10_r1_network.client[33] 	downloads[33] 	11862
scalar tree_4_3_u10_r1_network.client[33] 	avg_time[33] 	0.003997973767
scalar tree_4_3_u10_r1_network.client[34] 	hdistance[34] 	2.5360428165245
scalar tree_4_3_u10_r1_network.client[34] 	downloads[34] 	11958
scalar tree_4_3_u10_r1_network.client[34] 	avg_time[34] 	0.003997656702
scalar tree_4_3_u10_r1_network.client[35] 	hdistance[35] 	2.6065012116654
scalar tree_4_3_u10_r1_network.client[35] 	downloads[35] 	11967
scalar tree_4_3_u10_r1_network.client[35] 	avg_time[35] 	0.004115038066
scalar tree_4_3_u10_r1_network.client[36] 	hdistance[36] 	2.5603686635945
scalar tree_4_3_u10_r1_network.client[36] 	downloads[36] 	11935
scalar tree_4_3_u10_r1_network.client[36] 	avg_time[36] 	0.004027646762
scalar tree_4_3_u10_r1_network.client[37] 	hdistance[37] 	2.5316182572614
scalar tree_4_3_u10_r1_network.client[37] 	downloads[37] 	12050
scalar tree_4_3_u10_r1_network.client[37] 	avg_time[37] 	0.003981075843
scalar tree_4_3_u10_r1_network.client[38] 	hdistance[38] 	2.5665632077846
scalar tree_4_3_u10_r1_network.client[38] 	downloads[38] 	11921
scalar tree_4_3_u10_r1_network.client[38] 	avg_time[38] 	0.004041268729
scalar tree_4_3_u10_r1_network.client[39] 	hdistance[39] 	2.6303086367841
scalar tree_4_3_u10_r1_network.client[39] 	downloads[39] 	11891
scalar tree_4_3_u10_r1_network.client[39] 	avg_time[39] 	0.004115210253
