version 2
run General-219-20160820-17:48:35-2644
attr a 0.9
attr cd lce
attr configname General
attr cr lru
attr datetime 20160820-17:48:35
attr experiment General
attr fsize 1
attr inifile hw5115/scenario_A/SPR-LCE.ini
attr iterationvars "$name=tree_4_3, $un=10, $rep=20, $cd=lce, $cr=lru, $fsize=1, $a=0.9, $sl=spr, $ttl=1000, $variance=0.05"
attr iterationvars2 "$name=tree_4_3, $un=10, $rep=20, $cd=lce, $cr=lru, $fsize=1, $a=0.9, $sl=spr, $ttl=1000, $variance=0.05, $repetition=0"
attr measurement "$name=tree_4_3, $un=10, $rep=20, $cd=lce, $cr=lru, $fsize=1, $a=0.9, $sl=spr, $ttl=1000, $variance=0.05"
attr name tree_4_3
attr network networks.${name}_u${un}_r${rep}_network
attr processid 2644
attr rep 20
attr repetition 0
attr replication #0
attr resultdir results
attr runnumber 219
attr seedset 20
attr sl spr
attr ttl 1000
attr un 10
attr variance 0.05

scalar . 	a 	0.9
scalar . 	fsize 	1
scalar . 	rep 	20
scalar . 	ttl 	1000
scalar . 	un 	10
scalar . 	variance 	0.05
scalar tree_4_3_u10_r20_network.content_distribution 	repo-0 	0
scalar tree_4_3_u10_r20_network.content_distribution 	client-0 	13
scalar tree_4_3_u10_r20_network.content_distribution 	client-1 	14
scalar tree_4_3_u10_r20_network.content_distribution 	client-2 	15
scalar tree_4_3_u10_r20_network.content_distribution 	client-3 	16
scalar tree_4_3_u10_r20_network.content_distribution 	client-4 	17
scalar tree_4_3_u10_r20_network.content_distribution 	client-5 	18
scalar tree_4_3_u10_r20_network.content_distribution 	client-6 	19
scalar tree_4_3_u10_r20_network.content_distribution 	client-7 	20
scalar tree_4_3_u10_r20_network.content_distribution 	client-8 	21
scalar tree_4_3_u10_r20_network.content_distribution 	client-9 	22
scalar tree_4_3_u10_r20_network.content_distribution 	client-10 	23
scalar tree_4_3_u10_r20_network.content_distribution 	client-11 	24
scalar tree_4_3_u10_r20_network.content_distribution 	client-12 	25
scalar tree_4_3_u10_r20_network.content_distribution 	client-13 	26
scalar tree_4_3_u10_r20_network.content_distribution 	client-14 	27
scalar tree_4_3_u10_r20_network.content_distribution 	client-15 	28
scalar tree_4_3_u10_r20_network.content_distribution 	client-16 	29
scalar tree_4_3_u10_r20_network.content_distribution 	client-17 	30
scalar tree_4_3_u10_r20_network.content_distribution 	client-18 	31
scalar tree_4_3_u10_r20_network.content_distribution 	client-19 	32
scalar tree_4_3_u10_r20_network.content_distribution 	client-20 	33
scalar tree_4_3_u10_r20_network.content_distribution 	client-21 	34
scalar tree_4_3_u10_r20_network.content_distribution 	client-22 	35
scalar tree_4_3_u10_r20_network.content_distribution 	client-23 	36
scalar tree_4_3_u10_r20_network.content_distribution 	client-24 	37
scalar tree_4_3_u10_r20_network.content_distribution 	client-25 	38
scalar tree_4_3_u10_r20_network.content_distribution 	client-26 	39
scalar tree_4_3_u10_r20_network.content_distribution 	repo-0_card 	100000
scalar tree_4_3_u10_r20_network.content_distribution 	repo-0_price 	0
scalar tree_4_3_u10_r20_network.statistics 	stabilization_time 	565.8
scalar tree_4_3_u10_r20_network.statistics 	p_hit 	0.11247293673817
scalar tree_4_3_u10_r20_network.statistics 	interests 	28002.05
scalar tree_4_3_u10_r20_network.statistics 	data 	19912.2
scalar tree_4_3_u10_r20_network.statistics 	hdistance 	3.2510196094885
scalar tree_4_3_u10_r20_network.statistics 	avg_time 	0.004923024434
scalar tree_4_3_u10_r20_network.statistics 	downloads 	323571
scalar tree_4_3_u10_r20_network.statistics 	total_cost 	0
scalar tree_4_3_u10_r20_network.statistics 	total_replicas 	100000
scalar tree_4_3_u10_r20_network.statistics 	inner_hit 	0.21079763019554
scalar tree_4_3_u10_r20_network.node[0].core_layer 	interests[0] 	258822
scalar tree_4_3_u10_r20_network.node[0].core_layer 	repo_load[0] 	255363
scalar tree_4_3_u10_r20_network.node[0].core_layer 	data[0] 	0
scalar tree_4_3_u10_r20_network.node[0].core_layer 	repo_int[0] 	255363
scalar tree_4_3_u10_r20_network.node[0].content_store 	p_hit[0] 	0.013364397153256
scalar tree_4_3_u10_r20_network.node[0].content_store 	hits[0] 	3459
scalar tree_4_3_u10_r20_network.node[0].content_store 	misses[0] 	255363
scalar tree_4_3_u10_r20_network.node[0].content_store 	decision_yes[0] 	255363
scalar tree_4_3_u10_r20_network.node[0].content_store 	decision_no[0] 	0
scalar tree_4_3_u10_r20_network.node[0].content_store 	decision_ratio[0] 	1
scalar tree_4_3_u10_r20_network.node[1].core_layer 	interests[1] 	185699
scalar tree_4_3_u10_r20_network.node[1].core_layer 	data[1] 	181107
scalar tree_4_3_u10_r20_network.node[1].content_store 	p_hit[1] 	0.02459356270093
scalar tree_4_3_u10_r20_network.node[1].content_store 	hits[1] 	4567
scalar tree_4_3_u10_r20_network.node[1].content_store 	misses[1] 	181132
scalar tree_4_3_u10_r20_network.node[1].content_store 	decision_yes[1] 	181107
scalar tree_4_3_u10_r20_network.node[1].content_store 	decision_no[1] 	0
scalar tree_4_3_u10_r20_network.node[1].content_store 	decision_ratio[1] 	1
scalar tree_4_3_u10_r20_network.node[2].core_layer 	interests[2] 	69217
scalar tree_4_3_u10_r20_network.node[2].core_layer 	data[2] 	67704
scalar tree_4_3_u10_r20_network.node[2].content_store 	p_hit[2] 	0.021858791915281
scalar tree_4_3_u10_r20_network.node[2].content_store 	hits[2] 	1513
scalar tree_4_3_u10_r20_network.node[2].content_store 	misses[2] 	67704
scalar tree_4_3_u10_r20_network.node[2].content_store 	decision_yes[2] 	67704
scalar tree_4_3_u10_r20_network.node[2].content_store 	decision_no[2] 	0
scalar tree_4_3_u10_r20_network.node[2].content_store 	decision_ratio[2] 	1
scalar tree_4_3_u10_r20_network.node[3].core_layer 	interests[3] 	10013
scalar tree_4_3_u10_r20_network.node[3].core_layer 	data[3] 	10013
scalar tree_4_3_u10_r20_network.node[3].content_store 	p_hit[3] 	0
scalar tree_4_3_u10_r20_network.node[3].content_store 	hits[3] 	0
scalar tree_4_3_u10_r20_network.node[3].content_store 	misses[3] 	10013
scalar tree_4_3_u10_r20_network.node[3].content_store 	decision_yes[3] 	10013
scalar tree_4_3_u10_r20_network.node[3].content_store 	decision_no[3] 	0
scalar tree_4_3_u10_r20_network.node[3].content_store 	decision_ratio[3] 	1
scalar tree_4_3_u10_r20_network.node[4].core_layer 	interests[4] 	50471
scalar tree_4_3_u10_r20_network.node[4].core_layer 	data[4] 	48771
scalar tree_4_3_u10_r20_network.node[4].content_store 	p_hit[4] 	0.03362326880783
scalar tree_4_3_u10_r20_network.node[4].content_store 	hits[4] 	1697
scalar tree_4_3_u10_r20_network.node[4].content_store 	misses[4] 	48774
scalar tree_4_3_u10_r20_network.node[4].content_store 	decision_yes[4] 	48771
scalar tree_4_3_u10_r20_network.node[4].content_store 	decision_no[4] 	0
scalar tree_4_3_u10_r20_network.node[4].content_store 	decision_ratio[4] 	1
scalar tree_4_3_u10_r20_network.node[5].core_layer 	interests[5] 	30400
scalar tree_4_3_u10_r20_network.node[5].core_layer 	data[5] 	29494
scalar tree_4_3_u10_r20_network.node[5].content_store 	p_hit[5] 	0.029835526315789
scalar tree_4_3_u10_r20_network.node[5].content_store 	hits[5] 	907
scalar tree_4_3_u10_r20_network.node[5].content_store 	misses[5] 	29493
scalar tree_4_3_u10_r20_network.node[5].content_store 	decision_yes[5] 	29494
scalar tree_4_3_u10_r20_network.node[5].content_store 	decision_no[5] 	0
scalar tree_4_3_u10_r20_network.node[5].content_store 	decision_ratio[5] 	1
scalar tree_4_3_u10_r20_network.node[6].core_layer 	interests[6] 	10087
scalar tree_4_3_u10_r20_network.node[6].core_layer 	data[6] 	10051
scalar tree_4_3_u10_r20_network.node[6].content_store 	p_hit[6] 	0.0035689501338356
scalar tree_4_3_u10_r20_network.node[6].content_store 	hits[6] 	36
scalar tree_4_3_u10_r20_network.node[6].content_store 	misses[6] 	10051
scalar tree_4_3_u10_r20_network.node[6].content_store 	decision_yes[6] 	10051
scalar tree_4_3_u10_r20_network.node[6].content_store 	decision_no[6] 	0
scalar tree_4_3_u10_r20_network.node[6].content_store 	decision_ratio[6] 	1
scalar tree_4_3_u10_r20_network.node[7].core_layer 	interests[7] 	50628
scalar tree_4_3_u10_r20_network.node[7].core_layer 	data[7] 	48954
scalar tree_4_3_u10_r20_network.node[7].content_store 	p_hit[7] 	0.032946195780991
scalar tree_4_3_u10_r20_network.node[7].content_store 	hits[7] 	1668
scalar tree_4_3_u10_r20_network.node[7].content_store 	misses[7] 	48960
scalar tree_4_3_u10_r20_network.node[7].content_store 	decision_yes[7] 	48954
scalar tree_4_3_u10_r20_network.node[7].content_store 	decision_no[7] 	0
scalar tree_4_3_u10_r20_network.node[7].content_store 	decision_ratio[7] 	1
scalar tree_4_3_u10_r20_network.node[8].core_layer 	interests[8] 	30208
scalar tree_4_3_u10_r20_network.node[8].core_layer 	data[8] 	29352
scalar tree_4_3_u10_r20_network.node[8].content_store 	p_hit[8] 	0.02833686440678
scalar tree_4_3_u10_r20_network.node[8].content_store 	hits[8] 	856
scalar tree_4_3_u10_r20_network.node[8].content_store 	misses[8] 	29352
scalar tree_4_3_u10_r20_network.node[8].content_store 	decision_yes[8] 	29352
scalar tree_4_3_u10_r20_network.node[8].content_store 	decision_no[8] 	0
scalar tree_4_3_u10_r20_network.node[8].content_store 	decision_ratio[8] 	1
scalar tree_4_3_u10_r20_network.node[9].core_layer 	interests[9] 	10163
scalar tree_4_3_u10_r20_network.node[9].core_layer 	data[9] 	10130
scalar tree_4_3_u10_r20_network.node[9].content_store 	p_hit[9] 	0.0032470727147496
scalar tree_4_3_u10_r20_network.node[9].content_store 	hits[9] 	33
scalar tree_4_3_u10_r20_network.node[9].content_store 	misses[9] 	10130
scalar tree_4_3_u10_r20_network.node[9].content_store 	decision_yes[9] 	10130
scalar tree_4_3_u10_r20_network.node[9].content_store 	decision_no[9] 	0
scalar tree_4_3_u10_r20_network.node[9].content_store 	decision_ratio[9] 	1
scalar tree_4_3_u10_r20_network.node[10].core_layer 	interests[10] 	50117
scalar tree_4_3_u10_r20_network.node[10].core_layer 	data[10] 	48429
scalar tree_4_3_u10_r20_network.node[10].content_store 	p_hit[10] 	0.033561466169164
scalar tree_4_3_u10_r20_network.node[10].content_store 	hits[10] 	1682
scalar tree_4_3_u10_r20_network.node[10].content_store 	misses[10] 	48435
scalar tree_4_3_u10_r20_network.node[10].content_store 	decision_yes[10] 	48429
scalar tree_4_3_u10_r20_network.node[10].content_store 	decision_no[10] 	0
scalar tree_4_3_u10_r20_network.node[10].content_store 	decision_ratio[10] 	1
scalar tree_4_3_u10_r20_network.node[11].core_layer 	interests[11] 	30610
scalar tree_4_3_u10_r20_network.node[11].core_layer 	data[11] 	29736
scalar tree_4_3_u10_r20_network.node[11].content_store 	p_hit[11] 	0.028487422410977
scalar tree_4_3_u10_r20_network.node[11].content_store 	hits[11] 	872
scalar tree_4_3_u10_r20_network.node[11].content_store 	misses[11] 	29738
scalar tree_4_3_u10_r20_network.node[11].content_store 	decision_yes[11] 	29736
scalar tree_4_3_u10_r20_network.node[11].content_store 	decision_no[11] 	0
scalar tree_4_3_u10_r20_network.node[11].content_store 	decision_ratio[11] 	1
scalar tree_4_3_u10_r20_network.node[12].core_layer 	interests[12] 	10049
scalar tree_4_3_u10_r20_network.node[12].core_layer 	data[12] 	10013
scalar tree_4_3_u10_r20_network.node[12].content_store 	p_hit[12] 	0.0035824460145288
scalar tree_4_3_u10_r20_network.node[12].content_store 	hits[12] 	36
scalar tree_4_3_u10_r20_network.node[12].content_store 	misses[12] 	10013
scalar tree_4_3_u10_r20_network.node[12].content_store 	decision_yes[12] 	10013
scalar tree_4_3_u10_r20_network.node[12].content_store 	decision_no[12] 	0
scalar tree_4_3_u10_r20_network.node[12].content_store 	decision_ratio[12] 	1
scalar tree_4_3_u10_r20_network.node[13].core_layer 	interests[13] 	11937
scalar tree_4_3_u10_r20_network.node[13].core_layer 	data[13] 	10070
scalar tree_4_3_u10_r20_network.node[13].content_store 	p_hit[13] 	0.15632068358884
scalar tree_4_3_u10_r20_network.node[13].content_store 	hits[13] 	1866
scalar tree_4_3_u10_r20_network.node[13].content_store 	misses[13] 	10071
scalar tree_4_3_u10_r20_network.node[13].content_store 	decision_yes[13] 	10070
scalar tree_4_3_u10_r20_network.node[13].content_store 	decision_no[13] 	0
scalar tree_4_3_u10_r20_network.node[13].content_store 	decision_ratio[13] 	1
scalar tree_4_3_u10_r20_network.node[14].core_layer 	interests[14] 	12058
scalar tree_4_3_u10_r20_network.node[14].core_layer 	data[14] 	10142
scalar tree_4_3_u10_r20_network.node[14].content_store 	p_hit[14] 	0.15881572400066
scalar tree_4_3_u10_r20_network.node[14].content_store 	hits[14] 	1915
scalar tree_4_3_u10_r20_network.node[14].content_store 	misses[14] 	10143
scalar tree_4_3_u10_r20_network.node[14].content_store 	decision_yes[14] 	10142
scalar tree_4_3_u10_r20_network.node[14].content_store 	decision_no[14] 	0
scalar tree_4_3_u10_r20_network.node[14].content_store 	decision_ratio[14] 	1
scalar tree_4_3_u10_r20_network.node[15].core_layer 	interests[15] 	11857
scalar tree_4_3_u10_r20_network.node[15].core_layer 	data[15] 	9988
scalar tree_4_3_u10_r20_network.node[15].content_store 	p_hit[15] 	0.15762840516151
scalar tree_4_3_u10_r20_network.node[15].content_store 	hits[15] 	1869
scalar tree_4_3_u10_r20_network.node[15].content_store 	misses[15] 	9988
scalar tree_4_3_u10_r20_network.node[15].content_store 	decision_yes[15] 	9988
scalar tree_4_3_u10_r20_network.node[15].content_store 	decision_no[15] 	0
scalar tree_4_3_u10_r20_network.node[15].content_store 	decision_ratio[15] 	1
scalar tree_4_3_u10_r20_network.node[16].core_layer 	interests[16] 	12062
scalar tree_4_3_u10_r20_network.node[16].core_layer 	data[16] 	10166
scalar tree_4_3_u10_r20_network.node[16].content_store 	p_hit[16] 	0.15702205272757
scalar tree_4_3_u10_r20_network.node[16].content_store 	hits[16] 	1894
scalar tree_4_3_u10_r20_network.node[16].content_store 	misses[16] 	10168
scalar tree_4_3_u10_r20_network.node[16].content_store 	decision_yes[16] 	10166
scalar tree_4_3_u10_r20_network.node[16].content_store 	decision_no[16] 	0
scalar tree_4_3_u10_r20_network.node[16].content_store 	decision_ratio[16] 	1
scalar tree_4_3_u10_r20_network.node[17].core_layer 	interests[17] 	11988
scalar tree_4_3_u10_r20_network.node[17].core_layer 	data[17] 	10166
scalar tree_4_3_u10_r20_network.node[17].content_store 	p_hit[17] 	0.15198531865199
scalar tree_4_3_u10_r20_network.node[17].content_store 	hits[17] 	1822
scalar tree_4_3_u10_r20_network.node[17].content_store 	misses[17] 	10166
scalar tree_4_3_u10_r20_network.node[17].content_store 	decision_yes[17] 	10166
scalar tree_4_3_u10_r20_network.node[17].content_store 	decision_no[17] 	0
scalar tree_4_3_u10_r20_network.node[17].content_store 	decision_ratio[17] 	1
scalar tree_4_3_u10_r20_network.node[18].core_layer 	interests[18] 	12062
scalar tree_4_3_u10_r20_network.node[18].core_layer 	data[18] 	10152
scalar tree_4_3_u10_r20_network.node[18].content_store 	p_hit[18] 	0.15843143757254
scalar tree_4_3_u10_r20_network.node[18].content_store 	hits[18] 	1911
scalar tree_4_3_u10_r20_network.node[18].content_store 	misses[18] 	10151
scalar tree_4_3_u10_r20_network.node[18].content_store 	decision_yes[18] 	10152
scalar tree_4_3_u10_r20_network.node[18].content_store 	decision_no[18] 	0
scalar tree_4_3_u10_r20_network.node[18].content_store 	decision_ratio[18] 	1
scalar tree_4_3_u10_r20_network.node[19].core_layer 	interests[19] 	11958
scalar tree_4_3_u10_r20_network.node[19].core_layer 	data[19] 	10105
scalar tree_4_3_u10_r20_network.node[19].content_store 	p_hit[19] 	0.1547917711992
scalar tree_4_3_u10_r20_network.node[19].content_store 	hits[19] 	1851
scalar tree_4_3_u10_r20_network.node[19].content_store 	misses[19] 	10107
scalar tree_4_3_u10_r20_network.node[19].content_store 	decision_yes[19] 	10105
scalar tree_4_3_u10_r20_network.node[19].content_store 	decision_no[19] 	0
scalar tree_4_3_u10_r20_network.node[19].content_store 	decision_ratio[19] 	1
scalar tree_4_3_u10_r20_network.node[20].core_layer 	interests[20] 	11931
scalar tree_4_3_u10_r20_network.node[20].core_layer 	data[20] 	10083
scalar tree_4_3_u10_r20_network.node[20].content_store 	p_hit[20] 	0.15480680580002
scalar tree_4_3_u10_r20_network.node[20].content_store 	hits[20] 	1847
scalar tree_4_3_u10_r20_network.node[20].content_store 	misses[20] 	10084
scalar tree_4_3_u10_r20_network.node[20].content_store 	decision_yes[20] 	10083
scalar tree_4_3_u10_r20_network.node[20].content_store 	decision_no[20] 	0
scalar tree_4_3_u10_r20_network.node[20].content_store 	decision_ratio[20] 	1
scalar tree_4_3_u10_r20_network.node[21].core_layer 	interests[21] 	12021
scalar tree_4_3_u10_r20_network.node[21].core_layer 	data[21] 	10087
scalar tree_4_3_u10_r20_network.node[21].content_store 	p_hit[21] 	0.16063555444639
scalar tree_4_3_u10_r20_network.node[21].content_store 	hits[21] 	1931
scalar tree_4_3_u10_r20_network.node[21].content_store 	misses[21] 	10090
scalar tree_4_3_u10_r20_network.node[21].content_store 	decision_yes[21] 	10087
scalar tree_4_3_u10_r20_network.node[21].content_store 	decision_no[21] 	0
scalar tree_4_3_u10_r20_network.node[21].content_store 	decision_ratio[21] 	1
scalar tree_4_3_u10_r20_network.node[22].core_layer 	interests[22] 	12031
scalar tree_4_3_u10_r20_network.node[22].core_layer 	data[22] 	10178
scalar tree_4_3_u10_r20_network.node[22].content_store 	p_hit[22] 	0.15401878480592
scalar tree_4_3_u10_r20_network.node[22].content_store 	hits[22] 	1853
scalar tree_4_3_u10_r20_network.node[22].content_store 	misses[22] 	10178
scalar tree_4_3_u10_r20_network.node[22].content_store 	decision_yes[22] 	10178
scalar tree_4_3_u10_r20_network.node[22].content_store 	decision_no[22] 	0
scalar tree_4_3_u10_r20_network.node[22].content_store 	decision_ratio[22] 	1
scalar tree_4_3_u10_r20_network.node[23].core_layer 	interests[23] 	11987
scalar tree_4_3_u10_r20_network.node[23].core_layer 	data[23] 	10095
scalar tree_4_3_u10_r20_network.node[23].content_store 	p_hit[23] 	0.15767081004421
scalar tree_4_3_u10_r20_network.node[23].content_store 	hits[23] 	1890
scalar tree_4_3_u10_r20_network.node[23].content_store 	misses[23] 	10097
scalar tree_4_3_u10_r20_network.node[23].content_store 	decision_yes[23] 	10095
scalar tree_4_3_u10_r20_network.node[23].content_store 	decision_no[23] 	0
scalar tree_4_3_u10_r20_network.node[23].content_store 	decision_ratio[23] 	1
scalar tree_4_3_u10_r20_network.node[24].core_layer 	interests[24] 	12061
scalar tree_4_3_u10_r20_network.node[24].core_layer 	data[24] 	10205
scalar tree_4_3_u10_r20_network.node[24].content_store 	p_hit[24] 	0.15371859713125
scalar tree_4_3_u10_r20_network.node[24].content_store 	hits[24] 	1854
scalar tree_4_3_u10_r20_network.node[24].content_store 	misses[24] 	10207
scalar tree_4_3_u10_r20_network.node[24].content_store 	decision_yes[24] 	10205
scalar tree_4_3_u10_r20_network.node[24].content_store 	decision_no[24] 	0
scalar tree_4_3_u10_r20_network.node[24].content_store 	decision_ratio[24] 	1
scalar tree_4_3_u10_r20_network.node[25].core_layer 	interests[25] 	11869
scalar tree_4_3_u10_r20_network.node[25].core_layer 	data[25] 	9966
scalar tree_4_3_u10_r20_network.node[25].content_store 	p_hit[25] 	0.16008088297245
scalar tree_4_3_u10_r20_network.node[25].content_store 	hits[25] 	1900
scalar tree_4_3_u10_r20_network.node[25].content_store 	misses[25] 	9969
scalar tree_4_3_u10_r20_network.node[25].content_store 	decision_yes[25] 	9966
scalar tree_4_3_u10_r20_network.node[25].content_store 	decision_no[25] 	0
scalar tree_4_3_u10_r20_network.node[25].content_store 	decision_ratio[25] 	1
scalar tree_4_3_u10_r20_network.node[26].core_layer 	interests[26] 	12180
scalar tree_4_3_u10_r20_network.node[26].core_layer 	data[26] 	10284
scalar tree_4_3_u10_r20_network.node[26].content_store 	p_hit[26] 	0.15550082101806
scalar tree_4_3_u10_r20_network.node[26].content_store 	hits[26] 	1894
scalar tree_4_3_u10_r20_network.node[26].content_store 	misses[26] 	10286
scalar tree_4_3_u10_r20_network.node[26].content_store 	decision_yes[26] 	10284
scalar tree_4_3_u10_r20_network.node[26].content_store 	decision_no[26] 	0
scalar tree_4_3_u10_r20_network.node[26].content_store 	decision_ratio[26] 	1
scalar tree_4_3_u10_r20_network.node[27].core_layer 	interests[27] 	11916
scalar tree_4_3_u10_r20_network.node[27].core_layer 	data[27] 	9965
scalar tree_4_3_u10_r20_network.node[27].content_store 	p_hit[27] 	0.16356159785163
scalar tree_4_3_u10_r20_network.node[27].content_store 	hits[27] 	1949
scalar tree_4_3_u10_r20_network.node[27].content_store 	misses[27] 	9967
scalar tree_4_3_u10_r20_network.node[27].content_store 	decision_yes[27] 	9965
scalar tree_4_3_u10_r20_network.node[27].content_store 	decision_no[27] 	0
scalar tree_4_3_u10_r20_network.node[27].content_store 	decision_ratio[27] 	1
scalar tree_4_3_u10_r20_network.node[28].core_layer 	interests[28] 	12051
scalar tree_4_3_u10_r20_network.node[28].core_layer 	data[28] 	10183
scalar tree_4_3_u10_r20_network.node[28].content_store 	p_hit[28] 	0.15492490249772
scalar tree_4_3_u10_r20_network.node[28].content_store 	hits[28] 	1867
scalar tree_4_3_u10_r20_network.node[28].content_store 	misses[28] 	10184
scalar tree_4_3_u10_r20_network.node[28].content_store 	decision_yes[28] 	10183
scalar tree_4_3_u10_r20_network.node[28].content_store 	decision_no[28] 	0
scalar tree_4_3_u10_r20_network.node[28].content_store 	decision_ratio[28] 	1
scalar tree_4_3_u10_r20_network.node[29].core_layer 	interests[29] 	11872
scalar tree_4_3_u10_r20_network.node[29].core_layer 	data[29] 	9960
scalar tree_4_3_u10_r20_network.node[29].content_store 	p_hit[29] 	0.16105121293801
scalar tree_4_3_u10_r20_network.node[29].content_store 	hits[29] 	1912
scalar tree_4_3_u10_r20_network.node[29].content_store 	misses[29] 	9960
scalar tree_4_3_u10_r20_network.node[29].content_store 	decision_yes[29] 	9960
scalar tree_4_3_u10_r20_network.node[29].content_store 	decision_no[29] 	0
scalar tree_4_3_u10_r20_network.node[29].content_store 	decision_ratio[29] 	1
scalar tree_4_3_u10_r20_network.node[30].core_layer 	interests[30] 	11997
scalar tree_4_3_u10_r20_network.node[30].core_layer 	data[30] 	10163
scalar tree_4_3_u10_r20_network.node[30].content_store 	p_hit[30] 	0.15278819704926
scalar tree_4_3_u10_r20_network.node[30].content_store 	hits[30] 	1833
scalar tree_4_3_u10_r20_network.node[30].content_store 	misses[30] 	10164
scalar tree_4_3_u10_r20_network.node[30].content_store 	decision_yes[30] 	10163
scalar tree_4_3_u10_r20_network.node[30].content_store 	decision_no[30] 	0
scalar tree_4_3_u10_r20_network.node[30].content_store 	decision_ratio[30] 	1
scalar tree_4_3_u10_r20_network.node[31].core_layer 	interests[31] 	12072
scalar tree_4_3_u10_r20_network.node[31].core_layer 	data[31] 	10107
scalar tree_4_3_u10_r20_network.node[31].content_store 	p_hit[31] 	0.16277335984095
scalar tree_4_3_u10_r20_network.node[31].content_store 	hits[31] 	1965
scalar tree_4_3_u10_r20_network.node[31].content_store 	misses[31] 	10107
scalar tree_4_3_u10_r20_network.node[31].content_store 	decision_yes[31] 	10107
scalar tree_4_3_u10_r20_network.node[31].content_store 	decision_no[31] 	0
scalar tree_4_3_u10_r20_network.node[31].content_store 	decision_ratio[31] 	1
scalar tree_4_3_u10_r20_network.node[32].core_layer 	interests[32] 	11895
scalar tree_4_3_u10_r20_network.node[32].core_layer 	data[32] 	10016
scalar tree_4_3_u10_r20_network.node[32].content_store 	p_hit[32] 	0.15796553173602
scalar tree_4_3_u10_r20_network.node[32].content_store 	hits[32] 	1879
scalar tree_4_3_u10_r20_network.node[32].content_store 	misses[32] 	10016
scalar tree_4_3_u10_r20_network.node[32].content_store 	decision_yes[32] 	10016
scalar tree_4_3_u10_r20_network.node[32].content_store 	decision_no[32] 	0
scalar tree_4_3_u10_r20_network.node[32].content_store 	decision_ratio[32] 	1
scalar tree_4_3_u10_r20_network.node[33].core_layer 	interests[33] 	11873
scalar tree_4_3_u10_r20_network.node[33].core_layer 	data[33] 	9989
scalar tree_4_3_u10_r20_network.node[33].content_store 	p_hit[33] 	0.1586793565232
scalar tree_4_3_u10_r20_network.node[33].content_store 	hits[33] 	1884
scalar tree_4_3_u10_r20_network.node[33].content_store 	misses[33] 	9989
scalar tree_4_3_u10_r20_network.node[33].content_store 	decision_yes[33] 	9989
scalar tree_4_3_u10_r20_network.node[33].content_store 	decision_no[33] 	0
scalar tree_4_3_u10_r20_network.node[33].content_store 	decision_ratio[33] 	1
scalar tree_4_3_u10_r20_network.node[34].core_layer 	interests[34] 	11771
scalar tree_4_3_u10_r20_network.node[34].core_layer 	data[34] 	9851
scalar tree_4_3_u10_r20_network.node[34].content_store 	p_hit[34] 	0.16311273468694
scalar tree_4_3_u10_r20_network.node[34].content_store 	hits[34] 	1920
scalar tree_4_3_u10_r20_network.node[34].content_store 	misses[34] 	9851
scalar tree_4_3_u10_r20_network.node[34].content_store 	decision_yes[34] 	9851
scalar tree_4_3_u10_r20_network.node[34].content_store 	decision_no[34] 	0
scalar tree_4_3_u10_r20_network.node[34].content_store 	decision_ratio[34] 	1
scalar tree_4_3_u10_r20_network.node[35].core_layer 	interests[35] 	12167
scalar tree_4_3_u10_r20_network.node[35].core_layer 	data[35] 	10285
scalar tree_4_3_u10_r20_network.node[35].content_store 	p_hit[35] 	0.15468069367963
scalar tree_4_3_u10_r20_network.node[35].content_store 	hits[35] 	1882
scalar tree_4_3_u10_r20_network.node[35].content_store 	misses[35] 	10285
scalar tree_4_3_u10_r20_network.node[35].content_store 	decision_yes[35] 	10285
scalar tree_4_3_u10_r20_network.node[35].content_store 	decision_no[35] 	0
scalar tree_4_3_u10_r20_network.node[35].content_store 	decision_ratio[35] 	1
scalar tree_4_3_u10_r20_network.node[36].core_layer 	interests[36] 	12125
scalar tree_4_3_u10_r20_network.node[36].core_layer 	data[36] 	10216
scalar tree_4_3_u10_r20_network.node[36].content_store 	p_hit[36] 	0.15719587628866
scalar tree_4_3_u10_r20_network.node[36].content_store 	hits[36] 	1906
scalar tree_4_3_u10_r20_network.node[36].content_store 	misses[36] 	10219
scalar tree_4_3_u10_r20_network.node[36].content_store 	decision_yes[36] 	10216
scalar tree_4_3_u10_r20_network.node[36].content_store 	decision_no[36] 	0
scalar tree_4_3_u10_r20_network.node[36].content_store 	decision_ratio[36] 	1
scalar tree_4_3_u10_r20_network.node[37].core_layer 	interests[37] 	11955
scalar tree_4_3_u10_r20_network.node[37].core_layer 	data[37] 	10154
scalar tree_4_3_u10_r20_network.node[37].content_store 	p_hit[37] 	0.15064826432455
scalar tree_4_3_u10_r20_network.node[37].content_store 	hits[37] 	1801
scalar tree_4_3_u10_r20_network.node[37].content_store 	misses[37] 	10154
scalar tree_4_3_u10_r20_network.node[37].content_store 	decision_yes[37] 	10154
scalar tree_4_3_u10_r20_network.node[37].content_store 	decision_no[37] 	0
scalar tree_4_3_u10_r20_network.node[37].content_store 	decision_ratio[37] 	1
scalar tree_4_3_u10_r20_network.node[38].core_layer 	interests[38] 	11935
scalar tree_4_3_u10_r20_network.node[38].core_layer 	data[38] 	10109
scalar tree_4_3_u10_r20_network.node[38].content_store 	p_hit[38] 	0.15291160452451
scalar tree_4_3_u10_r20_network.node[38].content_store 	hits[38] 	1825
scalar tree_4_3_u10_r20_network.node[38].content_store 	misses[38] 	10110
scalar tree_4_3_u10_r20_network.node[38].content_store 	decision_yes[38] 	10109
scalar tree_4_3_u10_r20_network.node[38].content_store 	decision_no[38] 	0
scalar tree_4_3_u10_r20_network.node[38].content_store 	decision_ratio[38] 	1
scalar tree_4_3_u10_r20_network.node[39].core_layer 	interests[39] 	11967
scalar tree_4_3_u10_r20_network.node[39].core_layer 	data[39] 	10049
scalar tree_4_3_u10_r20_network.node[39].content_store 	p_hit[39] 	0.16019052394084
scalar tree_4_3_u10_r20_network.node[39].content_store 	hits[39] 	1917
scalar tree_4_3_u10_r20_network.node[39].content_store 	misses[39] 	10050
scalar tree_4_3_u10_r20_network.node[39].content_store 	decision_yes[39] 	10049
scalar tree_4_3_u10_r20_network.node[39].content_store 	decision_no[39] 	0
scalar tree_4_3_u10_r20_network.node[39].content_store 	decision_ratio[39] 	1
scalar tree_4_3_u10_r20_network.client[13] 	hdistance[13] 	3.2500837801609
scalar tree_4_3_u10_r20_network.client[13] 	downloads[13] 	11936
scalar tree_4_3_u10_r20_network.client[13] 	avg_time[13] 	0.004916875571
scalar tree_4_3_u10_r20_network.client[14] 	hdistance[14] 	3.2280832711288
scalar tree_4_3_u10_r20_network.client[14] 	downloads[14] 	12057
scalar tree_4_3_u10_r20_network.client[14] 	avg_time[14] 	0.00488580225
scalar tree_4_3_u10_r20_network.client[15] 	hdistance[15] 	3.241966770684
scalar tree_4_3_u10_r20_network.client[15] 	downloads[15] 	11857
scalar tree_4_3_u10_r20_network.client[15] 	avg_time[15] 	0.004904086853
scalar tree_4_3_u10_r20_network.client[16] 	hdistance[16] 	3.2422056384743
scalar tree_4_3_u10_r20_network.client[16] 	downloads[16] 	12060
scalar tree_4_3_u10_r20_network.client[16] 	avg_time[16] 	0.00490597791
scalar tree_4_3_u10_r20_network.client[17] 	hdistance[17] 	3.2736069402736
scalar tree_4_3_u10_r20_network.client[17] 	downloads[17] 	11988
scalar tree_4_3_u10_r20_network.client[17] 	avg_time[17] 	0.004952616287
scalar tree_4_3_u10_r20_network.client[18] 	hdistance[18] 	3.2313686479317
scalar tree_4_3_u10_r20_network.client[18] 	downloads[18] 	12063
scalar tree_4_3_u10_r20_network.client[18] 	avg_time[18] 	0.004894633435
scalar tree_4_3_u10_r20_network.client[19] 	hdistance[19] 	3.2543492806959
scalar tree_4_3_u10_r20_network.client[19] 	downloads[19] 	11956
scalar tree_4_3_u10_r20_network.client[19] 	avg_time[19] 	0.004925113417
scalar tree_4_3_u10_r20_network.client[20] 	hdistance[20] 	3.2528080469405
scalar tree_4_3_u10_r20_network.client[20] 	downloads[20] 	11930
scalar tree_4_3_u10_r20_network.client[20] 	avg_time[20] 	0.004924544686
scalar tree_4_3_u10_r20_network.client[21] 	hdistance[21] 	3.2844067232485
scalar tree_4_3_u10_r20_network.client[21] 	downloads[21] 	12018
scalar tree_4_3_u10_r20_network.client[21] 	avg_time[21] 	0.004966861077
scalar tree_4_3_u10_r20_network.client[22] 	hdistance[22] 	3.2567533870834
scalar tree_4_3_u10_r20_network.client[22] 	downloads[22] 	12031
scalar tree_4_3_u10_r20_network.client[22] 	avg_time[22] 	0.004926303457
scalar tree_4_3_u10_r20_network.client[23] 	hdistance[23] 	3.2429703796412
scalar tree_4_3_u10_r20_network.client[23] 	downloads[23] 	11985
scalar tree_4_3_u10_r20_network.client[23] 	avg_time[23] 	0.004904630569
scalar tree_4_3_u10_r20_network.client[24] 	hdistance[24] 	3.2485280703209
scalar tree_4_3_u10_r20_network.client[24] 	downloads[24] 	12059
scalar tree_4_3_u10_r20_network.client[24] 	avg_time[24] 	0.004917532265
scalar tree_4_3_u10_r20_network.client[25] 	hdistance[25] 	3.2369796055958
scalar tree_4_3_u10_r20_network.client[25] 	downloads[25] 	11866
scalar tree_4_3_u10_r20_network.client[25] 	avg_time[25] 	0.004894450134
scalar tree_4_3_u10_r20_network.client[26] 	hdistance[26] 	3.2559533585154
scalar tree_4_3_u10_r20_network.client[26] 	downloads[26] 	12178
scalar tree_4_3_u10_r20_network.client[26] 	avg_time[26] 	0.004942319414
scalar tree_4_3_u10_r20_network.client[27] 	hdistance[27] 	3.2267920094007
scalar tree_4_3_u10_r20_network.client[27] 	downloads[27] 	11914
scalar tree_4_3_u10_r20_network.client[27] 	avg_time[27] 	0.004892160453
scalar tree_4_3_u10_r20_network.client[28] 	hdistance[28] 	3.2523651452282
scalar tree_4_3_u10_r20_network.client[28] 	downloads[28] 	12050
scalar tree_4_3_u10_r20_network.client[28] 	avg_time[28] 	0.004924857591
scalar tree_4_3_u10_r20_network.client[29] 	hdistance[29] 	3.229615902965
scalar tree_4_3_u10_r20_network.client[29] 	downloads[29] 	11872
scalar tree_4_3_u10_r20_network.client[29] 	avg_time[29] 	0.004898495723
scalar tree_4_3_u10_r20_network.client[30] 	hdistance[30] 	3.3061853951317
scalar tree_4_3_u10_r20_network.client[30] 	downloads[30] 	11996
scalar tree_4_3_u10_r20_network.client[30] 	avg_time[30] 	0.005016776954
scalar tree_4_3_u10_r20_network.client[31] 	hdistance[31] 	3.2142147117296
scalar tree_4_3_u10_r20_network.client[31] 	downloads[31] 	12072
scalar tree_4_3_u10_r20_network.client[31] 	avg_time[31] 	0.004866611639
scalar tree_4_3_u10_r20_network.client[32] 	hdistance[32] 	3.2340479192938
scalar tree_4_3_u10_r20_network.client[32] 	downloads[32] 	11895
scalar tree_4_3_u10_r20_network.client[32] 	avg_time[32] 	0.004895673581
scalar tree_4_3_u10_r20_network.client[33] 	hdistance[33] 	3.2355765181504
scalar tree_4_3_u10_r20_network.client[33] 	downloads[33] 	11873
scalar tree_4_3_u10_r20_network.client[33] 	avg_time[33] 	0.004896457299
scalar tree_4_3_u10_r20_network.client[34] 	hdistance[34] 	3.2202871463767
scalar tree_4_3_u10_r20_network.client[34] 	downloads[34] 	11771
scalar tree_4_3_u10_r20_network.client[34] 	avg_time[34] 	0.004875000647
scalar tree_4_3_u10_r20_network.client[35] 	hdistance[35] 	3.2631708720309
scalar tree_4_3_u10_r20_network.client[35] 	downloads[35] 	12167
scalar tree_4_3_u10_r20_network.client[35] 	avg_time[35] 	0.004948628518
scalar tree_4_3_u10_r20_network.client[36] 	hdistance[36] 	3.2497112687675
scalar tree_4_3_u10_r20_network.client[36] 	downloads[36] 	12122
scalar tree_4_3_u10_r20_network.client[36] 	avg_time[36] 	0.004926959806
scalar tree_4_3_u10_r20_network.client[37] 	hdistance[37] 	3.2646591384358
scalar tree_4_3_u10_r20_network.client[37] 	downloads[37] 	11955
scalar tree_4_3_u10_r20_network.client[37] 	avg_time[37] 	0.004943277032
scalar tree_4_3_u10_r20_network.client[38] 	hdistance[38] 	3.2601809954751
scalar tree_4_3_u10_r20_network.client[38] 	downloads[38] 	11934
scalar tree_4_3_u10_r20_network.client[38] 	avg_time[38] 	0.004948666675
scalar tree_4_3_u10_r20_network.client[39] 	hdistance[39] 	3.3206585325088
scalar tree_4_3_u10_r20_network.client[39] 	downloads[39] 	11966
scalar tree_4_3_u10_r20_network.client[39] 	avg_time[39] 	0.005026346479
