version 2
run General-204-20160820-17:25:24-2644
attr a 0.9
attr cd lce
attr configname General
attr cr lru
attr datetime 20160820-17:25:24
attr experiment General
attr fsize 1
attr inifile hw5115/scenario_A/SPR-LCE.ini
attr iterationvars "$name=tree_4_3, $un=10, $rep=5, $cd=lce, $cr=lru, $fsize=1, $a=0.9, $sl=spr, $ttl=1000, $variance=0.05"
attr iterationvars2 "$name=tree_4_3, $un=10, $rep=5, $cd=lce, $cr=lru, $fsize=1, $a=0.9, $sl=spr, $ttl=1000, $variance=0.05, $repetition=0"
attr measurement "$name=tree_4_3, $un=10, $rep=5, $cd=lce, $cr=lru, $fsize=1, $a=0.9, $sl=spr, $ttl=1000, $variance=0.05"
attr name tree_4_3
attr network networks.${name}_u${un}_r${rep}_network
attr processid 2644
attr rep 5
attr repetition 0
attr replication #0
attr resultdir results
attr runnumber 204
attr seedset 5
attr sl spr
attr ttl 1000
attr un 10
attr variance 0.05

scalar . 	a 	0.9
scalar . 	fsize 	1
scalar . 	rep 	5
scalar . 	ttl 	1000
scalar . 	un 	10
scalar . 	variance 	0.05
scalar tree_4_3_u10_r5_network.content_distribution 	repo-0 	0
scalar tree_4_3_u10_r5_network.content_distribution 	client-0 	13
scalar tree_4_3_u10_r5_network.content_distribution 	client-1 	14
scalar tree_4_3_u10_r5_network.content_distribution 	client-2 	15
scalar tree_4_3_u10_r5_network.content_distribution 	client-3 	16
scalar tree_4_3_u10_r5_network.content_distribution 	client-4 	17
scalar tree_4_3_u10_r5_network.content_distribution 	client-5 	18
scalar tree_4_3_u10_r5_network.content_distribution 	client-6 	19
scalar tree_4_3_u10_r5_network.content_distribution 	client-7 	20
scalar tree_4_3_u10_r5_network.content_distribution 	client-8 	21
scalar tree_4_3_u10_r5_network.content_distribution 	client-9 	22
scalar tree_4_3_u10_r5_network.content_distribution 	client-10 	23
scalar tree_4_3_u10_r5_network.content_distribution 	client-11 	24
scalar tree_4_3_u10_r5_network.content_distribution 	client-12 	25
scalar tree_4_3_u10_r5_network.content_distribution 	client-13 	26
scalar tree_4_3_u10_r5_network.content_distribution 	client-14 	27
scalar tree_4_3_u10_r5_network.content_distribution 	client-15 	28
scalar tree_4_3_u10_r5_network.content_distribution 	client-16 	29
scalar tree_4_3_u10_r5_network.content_distribution 	client-17 	30
scalar tree_4_3_u10_r5_network.content_distribution 	client-18 	31
scalar tree_4_3_u10_r5_network.content_distribution 	client-19 	32
scalar tree_4_3_u10_r5_network.content_distribution 	client-20 	33
scalar tree_4_3_u10_r5_network.content_distribution 	client-21 	34
scalar tree_4_3_u10_r5_network.content_distribution 	client-22 	35
scalar tree_4_3_u10_r5_network.content_distribution 	client-23 	36
scalar tree_4_3_u10_r5_network.content_distribution 	client-24 	37
scalar tree_4_3_u10_r5_network.content_distribution 	client-25 	38
scalar tree_4_3_u10_r5_network.content_distribution 	client-26 	39
scalar tree_4_3_u10_r5_network.content_distribution 	repo-0_card 	100000
scalar tree_4_3_u10_r5_network.content_distribution 	repo-0_price 	0
scalar tree_4_3_u10_r5_network.statistics 	stabilization_time 	864
scalar tree_4_3_u10_r5_network.statistics 	p_hit 	0.11168179575909
scalar tree_4_3_u10_r5_network.statistics 	interests 	28010.25
scalar tree_4_3_u10_r5_network.statistics 	data 	19925.05
scalar tree_4_3_u10_r5_network.statistics 	hdistance 	3.2550201037361
scalar tree_4_3_u10_r5_network.statistics 	avg_time 	0.004929277762
scalar tree_4_3_u10_r5_network.statistics 	downloads 	323390
scalar tree_4_3_u10_r5_network.statistics 	total_cost 	0
scalar tree_4_3_u10_r5_network.statistics 	total_replicas 	100000
scalar tree_4_3_u10_r5_network.statistics 	inner_hit 	0.20994774111754
scalar tree_4_3_u10_r5_network.node[0].core_layer 	interests[0] 	258899
scalar tree_4_3_u10_r5_network.node[0].core_layer 	repo_load[0] 	255495
scalar tree_4_3_u10_r5_network.node[0].core_layer 	data[0] 	0
scalar tree_4_3_u10_r5_network.node[0].core_layer 	repo_int[0] 	255495
scalar tree_4_3_u10_r5_network.node[0].content_store 	p_hit[0] 	0.013147984349109
scalar tree_4_3_u10_r5_network.node[0].content_store 	hits[0] 	3404
scalar tree_4_3_u10_r5_network.node[0].content_store 	misses[0] 	255495
scalar tree_4_3_u10_r5_network.node[0].content_store 	decision_yes[0] 	255495
scalar tree_4_3_u10_r5_network.node[0].content_store 	decision_no[0] 	0
scalar tree_4_3_u10_r5_network.node[0].content_store 	decision_ratio[0] 	1
scalar tree_4_3_u10_r5_network.node[1].core_layer 	interests[1] 	185916
scalar tree_4_3_u10_r5_network.node[1].core_layer 	data[1] 	181136
scalar tree_4_3_u10_r5_network.node[1].content_store 	p_hit[1] 	0.025592202930356
scalar tree_4_3_u10_r5_network.node[1].content_store 	hits[1] 	4758
scalar tree_4_3_u10_r5_network.node[1].content_store 	misses[1] 	181158
scalar tree_4_3_u10_r5_network.node[1].content_store 	decision_yes[1] 	181136
scalar tree_4_3_u10_r5_network.node[1].content_store 	decision_no[1] 	0
scalar tree_4_3_u10_r5_network.node[1].content_store 	decision_ratio[1] 	1
scalar tree_4_3_u10_r5_network.node[2].core_layer 	interests[2] 	69366
scalar tree_4_3_u10_r5_network.node[2].core_layer 	data[2] 	67864
scalar tree_4_3_u10_r5_network.node[2].content_store 	p_hit[2] 	0.021638843237321
scalar tree_4_3_u10_r5_network.node[2].content_store 	hits[2] 	1501
scalar tree_4_3_u10_r5_network.node[2].content_store 	misses[2] 	67865
scalar tree_4_3_u10_r5_network.node[2].content_store 	decision_yes[2] 	67864
scalar tree_4_3_u10_r5_network.node[2].content_store 	decision_no[2] 	0
scalar tree_4_3_u10_r5_network.node[2].content_store 	decision_ratio[2] 	1
scalar tree_4_3_u10_r5_network.node[3].core_layer 	interests[3] 	9901
scalar tree_4_3_u10_r5_network.node[3].core_layer 	data[3] 	9900
scalar tree_4_3_u10_r5_network.node[3].content_store 	p_hit[3] 	0.0001009998990001
scalar tree_4_3_u10_r5_network.node[3].content_store 	hits[3] 	1
scalar tree_4_3_u10_r5_network.node[3].content_store 	misses[3] 	9900
scalar tree_4_3_u10_r5_network.node[3].content_store 	decision_yes[3] 	9900
scalar tree_4_3_u10_r5_network.node[3].content_store 	decision_no[3] 	0
scalar tree_4_3_u10_r5_network.node[3].content_store 	decision_ratio[3] 	1
scalar tree_4_3_u10_r5_network.node[4].core_layer 	interests[4] 	50268
scalar tree_4_3_u10_r5_network.node[4].core_layer 	data[4] 	48549
scalar tree_4_3_u10_r5_network.node[4].content_store 	p_hit[4] 	0.033997771942389
scalar tree_4_3_u10_r5_network.node[4].content_store 	hits[4] 	1709
scalar tree_4_3_u10_r5_network.node[4].content_store 	misses[4] 	48559
scalar tree_4_3_u10_r5_network.node[4].content_store 	decision_yes[4] 	48549
scalar tree_4_3_u10_r5_network.node[4].content_store 	decision_no[4] 	0
scalar tree_4_3_u10_r5_network.node[4].content_store 	decision_ratio[4] 	1
scalar tree_4_3_u10_r5_network.node[5].core_layer 	interests[5] 	30418
scalar tree_4_3_u10_r5_network.node[5].core_layer 	data[5] 	29574
scalar tree_4_3_u10_r5_network.node[5].content_store 	p_hit[5] 	0.027812479452955
scalar tree_4_3_u10_r5_network.node[5].content_store 	hits[5] 	846
scalar tree_4_3_u10_r5_network.node[5].content_store 	misses[5] 	29572
scalar tree_4_3_u10_r5_network.node[5].content_store 	decision_yes[5] 	29574
scalar tree_4_3_u10_r5_network.node[5].content_store 	decision_no[5] 	0
scalar tree_4_3_u10_r5_network.node[5].content_store 	decision_ratio[5] 	1
scalar tree_4_3_u10_r5_network.node[6].core_layer 	interests[6] 	9926
scalar tree_4_3_u10_r5_network.node[6].core_layer 	data[6] 	9898
scalar tree_4_3_u10_r5_network.node[6].content_store 	p_hit[6] 	0.0027201289542615
scalar tree_4_3_u10_r5_network.node[6].content_store 	hits[6] 	27
scalar tree_4_3_u10_r5_network.node[6].content_store 	misses[6] 	9899
scalar tree_4_3_u10_r5_network.node[6].content_store 	decision_yes[6] 	9898
scalar tree_4_3_u10_r5_network.node[6].content_store 	decision_no[6] 	0
scalar tree_4_3_u10_r5_network.node[6].content_store 	decision_ratio[6] 	1
scalar tree_4_3_u10_r5_network.node[7].core_layer 	interests[7] 	50408
scalar tree_4_3_u10_r5_network.node[7].core_layer 	data[7] 	48734
scalar tree_4_3_u10_r5_network.node[7].content_store 	p_hit[7] 	0.033089985716553
scalar tree_4_3_u10_r5_network.node[7].content_store 	hits[7] 	1668
scalar tree_4_3_u10_r5_network.node[7].content_store 	misses[7] 	48740
scalar tree_4_3_u10_r5_network.node[7].content_store 	decision_yes[7] 	48734
scalar tree_4_3_u10_r5_network.node[7].content_store 	decision_no[7] 	0
scalar tree_4_3_u10_r5_network.node[7].content_store 	decision_ratio[7] 	1
scalar tree_4_3_u10_r5_network.node[8].core_layer 	interests[8] 	30633
scalar tree_4_3_u10_r5_network.node[8].core_layer 	data[8] 	29770
scalar tree_4_3_u10_r5_network.node[8].content_store 	p_hit[8] 	0.028106943492312
scalar tree_4_3_u10_r5_network.node[8].content_store 	hits[8] 	861
scalar tree_4_3_u10_r5_network.node[8].content_store 	misses[8] 	29772
scalar tree_4_3_u10_r5_network.node[8].content_store 	decision_yes[8] 	29770
scalar tree_4_3_u10_r5_network.node[8].content_store 	decision_no[8] 	0
scalar tree_4_3_u10_r5_network.node[8].content_store 	decision_ratio[8] 	1
scalar tree_4_3_u10_r5_network.node[9].core_layer 	interests[9] 	10102
scalar tree_4_3_u10_r5_network.node[9].core_layer 	data[9] 	10078
scalar tree_4_3_u10_r5_network.node[9].content_store 	p_hit[9] 	0.0022767768758662
scalar tree_4_3_u10_r5_network.node[9].content_store 	hits[9] 	23
scalar tree_4_3_u10_r5_network.node[9].content_store 	misses[9] 	10079
scalar tree_4_3_u10_r5_network.node[9].content_store 	decision_yes[9] 	10078
scalar tree_4_3_u10_r5_network.node[9].content_store 	decision_no[9] 	0
scalar tree_4_3_u10_r5_network.node[9].content_store 	decision_ratio[9] 	1
scalar tree_4_3_u10_r5_network.node[10].core_layer 	interests[10] 	50841
scalar tree_4_3_u10_r5_network.node[10].core_layer 	data[10] 	49162
scalar tree_4_3_u10_r5_network.node[10].content_store 	p_hit[10] 	0.032926181625066
scalar tree_4_3_u10_r5_network.node[10].content_store 	hits[10] 	1674
scalar tree_4_3_u10_r5_network.node[10].content_store 	misses[10] 	49167
scalar tree_4_3_u10_r5_network.node[10].content_store 	decision_yes[10] 	49162
scalar tree_4_3_u10_r5_network.node[10].content_store 	decision_no[10] 	0
scalar tree_4_3_u10_r5_network.node[10].content_store 	decision_ratio[10] 	1
scalar tree_4_3_u10_r5_network.node[11].core_layer 	interests[11] 	30386
scalar tree_4_3_u10_r5_network.node[11].core_layer 	data[11] 	29518
scalar tree_4_3_u10_r5_network.node[11].content_store 	p_hit[11] 	0.028467057197394
scalar tree_4_3_u10_r5_network.node[11].content_store 	hits[11] 	865
scalar tree_4_3_u10_r5_network.node[11].content_store 	misses[11] 	29521
scalar tree_4_3_u10_r5_network.node[11].content_store 	decision_yes[11] 	29518
scalar tree_4_3_u10_r5_network.node[11].content_store 	decision_no[11] 	0
scalar tree_4_3_u10_r5_network.node[11].content_store 	decision_ratio[11] 	1
scalar tree_4_3_u10_r5_network.node[12].core_layer 	interests[12] 	9938
scalar tree_4_3_u10_r5_network.node[12].core_layer 	data[12] 	9901
scalar tree_4_3_u10_r5_network.node[12].content_store 	p_hit[12] 	0.003723083115315
scalar tree_4_3_u10_r5_network.node[12].content_store 	hits[12] 	37
scalar tree_4_3_u10_r5_network.node[12].content_store 	misses[12] 	9901
scalar tree_4_3_u10_r5_network.node[12].content_store 	decision_yes[12] 	9901
scalar tree_4_3_u10_r5_network.node[12].content_store 	decision_no[12] 	0
scalar tree_4_3_u10_r5_network.node[12].content_store 	decision_ratio[12] 	1
scalar tree_4_3_u10_r5_network.node[13].core_layer 	interests[13] 	12106
scalar tree_4_3_u10_r5_network.node[13].core_layer 	data[13] 	10087
scalar tree_4_3_u10_r5_network.node[13].content_store 	p_hit[13] 	0.16661159755493
scalar tree_4_3_u10_r5_network.node[13].content_store 	hits[13] 	2017
scalar tree_4_3_u10_r5_network.node[13].content_store 	misses[13] 	10089
scalar tree_4_3_u10_r5_network.node[13].content_store 	decision_yes[13] 	10087
scalar tree_4_3_u10_r5_network.node[13].content_store 	decision_no[13] 	0
scalar tree_4_3_u10_r5_network.node[13].content_store 	decision_ratio[13] 	1
scalar tree_4_3_u10_r5_network.node[14].core_layer 	interests[14] 	11829
scalar tree_4_3_u10_r5_network.node[14].core_layer 	data[14] 	10027
scalar tree_4_3_u10_r5_network.node[14].content_store 	p_hit[14] 	0.15242201369516
scalar tree_4_3_u10_r5_network.node[14].content_store 	hits[14] 	1803
scalar tree_4_3_u10_r5_network.node[14].content_store 	misses[14] 	10026
scalar tree_4_3_u10_r5_network.node[14].content_store 	decision_yes[14] 	10027
scalar tree_4_3_u10_r5_network.node[14].content_store 	decision_no[14] 	0
scalar tree_4_3_u10_r5_network.node[14].content_store 	decision_ratio[14] 	1
scalar tree_4_3_u10_r5_network.node[15].core_layer 	interests[15] 	11912
scalar tree_4_3_u10_r5_network.node[15].core_layer 	data[15] 	9962
scalar tree_4_3_u10_r5_network.node[15].content_store 	p_hit[15] 	0.16370047011417
scalar tree_4_3_u10_r5_network.node[15].content_store 	hits[15] 	1950
scalar tree_4_3_u10_r5_network.node[15].content_store 	misses[15] 	9962
scalar tree_4_3_u10_r5_network.node[15].content_store 	decision_yes[15] 	9962
scalar tree_4_3_u10_r5_network.node[15].content_store 	decision_no[15] 	0
scalar tree_4_3_u10_r5_network.node[15].content_store 	decision_ratio[15] 	1
scalar tree_4_3_u10_r5_network.node[16].core_layer 	interests[16] 	12009
scalar tree_4_3_u10_r5_network.node[16].core_layer 	data[16] 	10160
scalar tree_4_3_u10_r5_network.node[16].content_store 	p_hit[16] 	0.15388458656008
scalar tree_4_3_u10_r5_network.node[16].content_store 	hits[16] 	1848
scalar tree_4_3_u10_r5_network.node[16].content_store 	misses[16] 	10161
scalar tree_4_3_u10_r5_network.node[16].content_store 	decision_yes[16] 	10160
scalar tree_4_3_u10_r5_network.node[16].content_store 	decision_no[16] 	0
scalar tree_4_3_u10_r5_network.node[16].content_store 	decision_ratio[16] 	1
scalar tree_4_3_u10_r5_network.node[17].core_layer 	interests[17] 	11996
scalar tree_4_3_u10_r5_network.node[17].core_layer 	data[17] 	10156
scalar tree_4_3_u10_r5_network.node[17].content_store 	p_hit[17] 	0.15338446148716
scalar tree_4_3_u10_r5_network.node[17].content_store 	hits[17] 	1840
scalar tree_4_3_u10_r5_network.node[17].content_store 	misses[17] 	10156
scalar tree_4_3_u10_r5_network.node[17].content_store 	decision_yes[17] 	10156
scalar tree_4_3_u10_r5_network.node[17].content_store 	decision_no[17] 	0
scalar tree_4_3_u10_r5_network.node[17].content_store 	decision_ratio[17] 	1
scalar tree_4_3_u10_r5_network.node[18].core_layer 	interests[18] 	12107
scalar tree_4_3_u10_r5_network.node[18].core_layer 	data[18] 	10223
scalar tree_4_3_u10_r5_network.node[18].content_store 	p_hit[18] 	0.155695052449
scalar tree_4_3_u10_r5_network.node[18].content_store 	hits[18] 	1885
scalar tree_4_3_u10_r5_network.node[18].content_store 	misses[18] 	10222
scalar tree_4_3_u10_r5_network.node[18].content_store 	decision_yes[18] 	10223
scalar tree_4_3_u10_r5_network.node[18].content_store 	decision_no[18] 	0
scalar tree_4_3_u10_r5_network.node[18].content_store 	decision_ratio[18] 	1
scalar tree_4_3_u10_r5_network.node[19].core_layer 	interests[19] 	11916
scalar tree_4_3_u10_r5_network.node[19].core_layer 	data[19] 	10033
scalar tree_4_3_u10_r5_network.node[19].content_store 	p_hit[19] 	0.15802282645183
scalar tree_4_3_u10_r5_network.node[19].content_store 	hits[19] 	1883
scalar tree_4_3_u10_r5_network.node[19].content_store 	misses[19] 	10033
scalar tree_4_3_u10_r5_network.node[19].content_store 	decision_yes[19] 	10033
scalar tree_4_3_u10_r5_network.node[19].content_store 	decision_no[19] 	0
scalar tree_4_3_u10_r5_network.node[19].content_store 	decision_ratio[19] 	1
scalar tree_4_3_u10_r5_network.node[20].core_layer 	interests[20] 	11954
scalar tree_4_3_u10_r5_network.node[20].core_layer 	data[20] 	10041
scalar tree_4_3_u10_r5_network.node[20].content_store 	p_hit[20] 	0.1599464614355
scalar tree_4_3_u10_r5_network.node[20].content_store 	hits[20] 	1912
scalar tree_4_3_u10_r5_network.node[20].content_store 	misses[20] 	10042
scalar tree_4_3_u10_r5_network.node[20].content_store 	decision_yes[20] 	10041
scalar tree_4_3_u10_r5_network.node[20].content_store 	decision_no[20] 	0
scalar tree_4_3_u10_r5_network.node[20].content_store 	decision_ratio[20] 	1
scalar tree_4_3_u10_r5_network.node[21].core_layer 	interests[21] 	11798
scalar tree_4_3_u10_r5_network.node[21].core_layer 	data[21] 	9925
scalar tree_4_3_u10_r5_network.node[21].content_store 	p_hit[21] 	0.15858620105103
scalar tree_4_3_u10_r5_network.node[21].content_store 	hits[21] 	1871
scalar tree_4_3_u10_r5_network.node[21].content_store 	misses[21] 	9927
scalar tree_4_3_u10_r5_network.node[21].content_store 	decision_yes[21] 	9925
scalar tree_4_3_u10_r5_network.node[21].content_store 	decision_no[21] 	0
scalar tree_4_3_u10_r5_network.node[21].content_store 	decision_ratio[21] 	1
scalar tree_4_3_u10_r5_network.node[22].core_layer 	interests[22] 	12129
scalar tree_4_3_u10_r5_network.node[22].core_layer 	data[22] 	10253
scalar tree_4_3_u10_r5_network.node[22].content_store 	p_hit[22] 	0.154670624124
scalar tree_4_3_u10_r5_network.node[22].content_store 	hits[22] 	1876
scalar tree_4_3_u10_r5_network.node[22].content_store 	misses[22] 	10253
scalar tree_4_3_u10_r5_network.node[22].content_store 	decision_yes[22] 	10253
scalar tree_4_3_u10_r5_network.node[22].content_store 	decision_no[22] 	0
scalar tree_4_3_u10_r5_network.node[22].content_store 	decision_ratio[22] 	1
scalar tree_4_3_u10_r5_network.node[23].core_layer 	interests[23] 	11882
scalar tree_4_3_u10_r5_network.node[23].core_layer 	data[23] 	9975
scalar tree_4_3_u10_r5_network.node[23].content_store 	p_hit[23] 	0.16041070526847
scalar tree_4_3_u10_r5_network.node[23].content_store 	hits[23] 	1906
scalar tree_4_3_u10_r5_network.node[23].content_store 	misses[23] 	9976
scalar tree_4_3_u10_r5_network.node[23].content_store 	decision_yes[23] 	9975
scalar tree_4_3_u10_r5_network.node[23].content_store 	decision_no[23] 	0
scalar tree_4_3_u10_r5_network.node[23].content_store 	decision_ratio[23] 	1
scalar tree_4_3_u10_r5_network.node[24].core_layer 	interests[24] 	12048
scalar tree_4_3_u10_r5_network.node[24].core_layer 	data[24] 	10154
scalar tree_4_3_u10_r5_network.node[24].content_store 	p_hit[24] 	0.15712151394422
scalar tree_4_3_u10_r5_network.node[24].content_store 	hits[24] 	1893
scalar tree_4_3_u10_r5_network.node[24].content_store 	misses[24] 	10155
scalar tree_4_3_u10_r5_network.node[24].content_store 	decision_yes[24] 	10154
scalar tree_4_3_u10_r5_network.node[24].content_store 	decision_no[24] 	0
scalar tree_4_3_u10_r5_network.node[24].content_store 	decision_ratio[24] 	1
scalar tree_4_3_u10_r5_network.node[25].core_layer 	interests[25] 	11936
scalar tree_4_3_u10_r5_network.node[25].core_layer 	data[25] 	10049
scalar tree_4_3_u10_r5_network.node[25].content_store 	p_hit[25] 	0.15792560321716
scalar tree_4_3_u10_r5_network.node[25].content_store 	hits[25] 	1885
scalar tree_4_3_u10_r5_network.node[25].content_store 	misses[25] 	10051
scalar tree_4_3_u10_r5_network.node[25].content_store 	decision_yes[25] 	10049
scalar tree_4_3_u10_r5_network.node[25].content_store 	decision_no[25] 	0
scalar tree_4_3_u10_r5_network.node[25].content_store 	decision_ratio[25] 	1
scalar tree_4_3_u10_r5_network.node[26].core_layer 	interests[26] 	12094
scalar tree_4_3_u10_r5_network.node[26].core_layer 	data[26] 	10236
scalar tree_4_3_u10_r5_network.node[26].content_store 	p_hit[26] 	0.15362989912353
scalar tree_4_3_u10_r5_network.node[26].content_store 	hits[26] 	1858
scalar tree_4_3_u10_r5_network.node[26].content_store 	misses[26] 	10236
scalar tree_4_3_u10_r5_network.node[26].content_store 	decision_yes[26] 	10236
scalar tree_4_3_u10_r5_network.node[26].content_store 	decision_no[26] 	0
scalar tree_4_3_u10_r5_network.node[26].content_store 	decision_ratio[26] 	1
scalar tree_4_3_u10_r5_network.node[27].core_layer 	interests[27] 	12047
scalar tree_4_3_u10_r5_network.node[27].core_layer 	data[27] 	10184
scalar tree_4_3_u10_r5_network.node[27].content_store 	p_hit[27] 	0.15456130156886
scalar tree_4_3_u10_r5_network.node[27].content_store 	hits[27] 	1862
scalar tree_4_3_u10_r5_network.node[27].content_store 	misses[27] 	10185
scalar tree_4_3_u10_r5_network.node[27].content_store 	decision_yes[27] 	10184
scalar tree_4_3_u10_r5_network.node[27].content_store 	decision_no[27] 	0
scalar tree_4_3_u10_r5_network.node[27].content_store 	decision_ratio[27] 	1
scalar tree_4_3_u10_r5_network.node[28].core_layer 	interests[28] 	11864
scalar tree_4_3_u10_r5_network.node[28].core_layer 	data[28] 	9976
scalar tree_4_3_u10_r5_network.node[28].content_store 	p_hit[28] 	0.15905259608901
scalar tree_4_3_u10_r5_network.node[28].content_store 	hits[28] 	1887
scalar tree_4_3_u10_r5_network.node[28].content_store 	misses[28] 	9977
scalar tree_4_3_u10_r5_network.node[28].content_store 	decision_yes[28] 	9976
scalar tree_4_3_u10_r5_network.node[28].content_store 	decision_no[28] 	0
scalar tree_4_3_u10_r5_network.node[28].content_store 	decision_ratio[28] 	1
scalar tree_4_3_u10_r5_network.node[29].core_layer 	interests[29] 	12088
scalar tree_4_3_u10_r5_network.node[29].core_layer 	data[29] 	10213
scalar tree_4_3_u10_r5_network.node[29].content_store 	p_hit[29] 	0.15511250827267
scalar tree_4_3_u10_r5_network.node[29].content_store 	hits[29] 	1875
scalar tree_4_3_u10_r5_network.node[29].content_store 	misses[29] 	10213
scalar tree_4_3_u10_r5_network.node[29].content_store 	decision_yes[29] 	10213
scalar tree_4_3_u10_r5_network.node[29].content_store 	decision_no[29] 	0
scalar tree_4_3_u10_r5_network.node[29].content_store 	decision_ratio[29] 	1
scalar tree_4_3_u10_r5_network.node[30].core_layer 	interests[30] 	11939
scalar tree_4_3_u10_r5_network.node[30].core_layer 	data[30] 	10101
scalar tree_4_3_u10_r5_network.node[30].content_store 	p_hit[30] 	0.15386548287126
scalar tree_4_3_u10_r5_network.node[30].content_store 	hits[30] 	1837
scalar tree_4_3_u10_r5_network.node[30].content_store 	misses[30] 	10102
scalar tree_4_3_u10_r5_network.node[30].content_store 	decision_yes[30] 	10101
scalar tree_4_3_u10_r5_network.node[30].content_store 	decision_no[30] 	0
scalar tree_4_3_u10_r5_network.node[30].content_store 	decision_ratio[30] 	1
scalar tree_4_3_u10_r5_network.node[31].core_layer 	interests[31] 	12084
scalar tree_4_3_u10_r5_network.node[31].core_layer 	data[31] 	10196
scalar tree_4_3_u10_r5_network.node[31].content_store 	p_hit[31] 	0.15623965574313
scalar tree_4_3_u10_r5_network.node[31].content_store 	hits[31] 	1888
scalar tree_4_3_u10_r5_network.node[31].content_store 	misses[31] 	10196
scalar tree_4_3_u10_r5_network.node[31].content_store 	decision_yes[31] 	10196
scalar tree_4_3_u10_r5_network.node[31].content_store 	decision_no[31] 	0
scalar tree_4_3_u10_r5_network.node[31].content_store 	decision_ratio[31] 	1
scalar tree_4_3_u10_r5_network.node[32].core_layer 	interests[32] 	11971
scalar tree_4_3_u10_r5_network.node[32].core_layer 	data[32] 	10160
scalar tree_4_3_u10_r5_network.node[32].content_store 	p_hit[32] 	0.1512822654749
scalar tree_4_3_u10_r5_network.node[32].content_store 	hits[32] 	1811
scalar tree_4_3_u10_r5_network.node[32].content_store 	misses[32] 	10160
scalar tree_4_3_u10_r5_network.node[32].content_store 	decision_yes[32] 	10160
scalar tree_4_3_u10_r5_network.node[32].content_store 	decision_no[32] 	0
scalar tree_4_3_u10_r5_network.node[32].content_store 	decision_ratio[32] 	1
scalar tree_4_3_u10_r5_network.node[33].core_layer 	interests[33] 	11953
scalar tree_4_3_u10_r5_network.node[33].core_layer 	data[33] 	10109
scalar tree_4_3_u10_r5_network.node[33].content_store 	p_hit[33] 	0.15410357232494
scalar tree_4_3_u10_r5_network.node[33].content_store 	hits[33] 	1842
scalar tree_4_3_u10_r5_network.node[33].content_store 	misses[33] 	10111
scalar tree_4_3_u10_r5_network.node[33].content_store 	decision_yes[33] 	10109
scalar tree_4_3_u10_r5_network.node[33].content_store 	decision_no[33] 	0
scalar tree_4_3_u10_r5_network.node[33].content_store 	decision_ratio[33] 	1
scalar tree_4_3_u10_r5_network.node[34].core_layer 	interests[34] 	12098
scalar tree_4_3_u10_r5_network.node[34].core_layer 	data[34] 	10262
scalar tree_4_3_u10_r5_network.node[34].content_store 	p_hit[34] 	0.15176062159035
scalar tree_4_3_u10_r5_network.node[34].content_store 	hits[34] 	1836
scalar tree_4_3_u10_r5_network.node[34].content_store 	misses[34] 	10262
scalar tree_4_3_u10_r5_network.node[34].content_store 	decision_yes[34] 	10262
scalar tree_4_3_u10_r5_network.node[34].content_store 	decision_no[34] 	0
scalar tree_4_3_u10_r5_network.node[34].content_store 	decision_ratio[34] 	1
scalar tree_4_3_u10_r5_network.node[35].core_layer 	interests[35] 	11984
scalar tree_4_3_u10_r5_network.node[35].core_layer 	data[35] 	10017
scalar tree_4_3_u10_r5_network.node[35].content_store 	p_hit[35] 	0.1640520694259
scalar tree_4_3_u10_r5_network.node[35].content_store 	hits[35] 	1966
scalar tree_4_3_u10_r5_network.node[35].content_store 	misses[35] 	10018
scalar tree_4_3_u10_r5_network.node[35].content_store 	decision_yes[35] 	10017
scalar tree_4_3_u10_r5_network.node[35].content_store 	decision_no[35] 	0
scalar tree_4_3_u10_r5_network.node[35].content_store 	decision_ratio[35] 	1
scalar tree_4_3_u10_r5_network.node[36].core_layer 	interests[36] 	11893
scalar tree_4_3_u10_r5_network.node[36].core_layer 	data[36] 	10109
scalar tree_4_3_u10_r5_network.node[36].content_store 	p_hit[36] 	0.1500042041537
scalar tree_4_3_u10_r5_network.node[36].content_store 	hits[36] 	1784
scalar tree_4_3_u10_r5_network.node[36].content_store 	misses[36] 	10109
scalar tree_4_3_u10_r5_network.node[36].content_store 	decision_yes[36] 	10109
scalar tree_4_3_u10_r5_network.node[36].content_store 	decision_no[36] 	0
scalar tree_4_3_u10_r5_network.node[36].content_store 	decision_ratio[36] 	1
scalar tree_4_3_u10_r5_network.node[37].core_layer 	interests[37] 	11913
scalar tree_4_3_u10_r5_network.node[37].core_layer 	data[37] 	10114
scalar tree_4_3_u10_r5_network.node[37].content_store 	p_hit[37] 	0.15084361621758
scalar tree_4_3_u10_r5_network.node[37].content_store 	hits[37] 	1797
scalar tree_4_3_u10_r5_network.node[37].content_store 	misses[37] 	10116
scalar tree_4_3_u10_r5_network.node[37].content_store 	decision_yes[37] 	10114
scalar tree_4_3_u10_r5_network.node[37].content_store 	decision_no[37] 	0
scalar tree_4_3_u10_r5_network.node[37].content_store 	decision_ratio[37] 	1
scalar tree_4_3_u10_r5_network.node[38].core_layer 	interests[38] 	12132
scalar tree_4_3_u10_r5_network.node[38].core_layer 	data[38] 	10258
scalar tree_4_3_u10_r5_network.node[38].content_store 	p_hit[38] 	0.15438509726344
scalar tree_4_3_u10_r5_network.node[38].content_store 	hits[38] 	1873
scalar tree_4_3_u10_r5_network.node[38].content_store 	misses[38] 	10259
scalar tree_4_3_u10_r5_network.node[38].content_store 	decision_yes[38] 	10258
scalar tree_4_3_u10_r5_network.node[38].content_store 	decision_no[38] 	0
scalar tree_4_3_u10_r5_network.node[38].content_store 	decision_ratio[38] 	1
scalar tree_4_3_u10_r5_network.node[39].core_layer 	interests[39] 	11726
scalar tree_4_3_u10_r5_network.node[39].core_layer 	data[39] 	9938
scalar tree_4_3_u10_r5_network.node[39].content_store 	p_hit[39] 	0.1523963841037
scalar tree_4_3_u10_r5_network.node[39].content_store 	hits[39] 	1787
scalar tree_4_3_u10_r5_network.node[39].content_store 	misses[39] 	9939
scalar tree_4_3_u10_r5_network.node[39].content_store 	decision_yes[39] 	9938
scalar tree_4_3_u10_r5_network.node[39].content_store 	decision_no[39] 	0
scalar tree_4_3_u10_r5_network.node[39].content_store 	decision_ratio[39] 	1
scalar tree_4_3_u10_r5_network.client[13] 	hdistance[13] 	3.195059484468
scalar tree_4_3_u10_r5_network.client[13] 	downloads[13] 	12104
scalar tree_4_3_u10_r5_network.client[13] 	avg_time[13] 	0.00483892322
scalar tree_4_3_u10_r5_network.client[14] 	hdistance[14] 	3.2550295857988
scalar tree_4_3_u10_r5_network.client[14] 	downloads[14] 	11830
scalar tree_4_3_u10_r5_network.client[14] 	avg_time[14] 	0.004928556515
scalar tree_4_3_u10_r5_network.client[15] 	hdistance[15] 	3.2111316319678
scalar tree_4_3_u10_r5_network.client[15] 	downloads[15] 	11912
scalar tree_4_3_u10_r5_network.client[15] 	avg_time[15] 	0.004859923342
scalar tree_4_3_u10_r5_network.client[16] 	hdistance[16] 	3.253580946036
scalar tree_4_3_u10_r5_network.client[16] 	downloads[16] 	12008
scalar tree_4_3_u10_r5_network.client[16] 	avg_time[16] 	0.004925404719
scalar tree_4_3_u10_r5_network.client[17] 	hdistance[17] 	3.2619206402134
scalar tree_4_3_u10_r5_network.client[17] 	downloads[17] 	11996
scalar tree_4_3_u10_r5_network.client[17] 	avg_time[17] 	0.004937981653
scalar tree_4_3_u10_r5_network.client[18] 	hdistance[18] 	3.2488437396762
scalar tree_4_3_u10_r5_network.client[18] 	downloads[18] 	12108
scalar tree_4_3_u10_r5_network.client[18] 	avg_time[18] 	0.004918902424
scalar tree_4_3_u10_r5_network.client[19] 	hdistance[19] 	3.2360691507217
scalar tree_4_3_u10_r5_network.client[19] 	downloads[19] 	11916
scalar tree_4_3_u10_r5_network.client[19] 	avg_time[19] 	0.004899118721
scalar tree_4_3_u10_r5_network.client[20] 	hdistance[20] 	3.2427005772609
scalar tree_4_3_u10_r5_network.client[20] 	downloads[20] 	11953
scalar tree_4_3_u10_r5_network.client[20] 	avg_time[20] 	0.004907257178
scalar tree_4_3_u10_r5_network.client[21] 	hdistance[21] 	3.2922177009156
scalar tree_4_3_u10_r5_network.client[21] 	downloads[21] 	11796
scalar tree_4_3_u10_r5_network.client[21] 	avg_time[21] 	0.004979761197
scalar tree_4_3_u10_r5_network.client[22] 	hdistance[22] 	3.255750680188
scalar tree_4_3_u10_r5_network.client[22] 	downloads[22] 	12129
scalar tree_4_3_u10_r5_network.client[22] 	avg_time[22] 	0.004927498357
scalar tree_4_3_u10_r5_network.client[23] 	hdistance[23] 	3.2261594141907
scalar tree_4_3_u10_r5_network.client[23] 	downloads[23] 	11881
scalar tree_4_3_u10_r5_network.client[23] 	avg_time[23] 	0.004883190237
scalar tree_4_3_u10_r5_network.client[24] 	hdistance[24] 	3.2354943139371
scalar tree_4_3_u10_r5_network.client[24] 	downloads[24] 	12047
scalar tree_4_3_u10_r5_network.client[24] 	avg_time[24] 	0.004901093842
scalar tree_4_3_u10_r5_network.client[25] 	hdistance[25] 	3.2381431204961
scalar tree_4_3_u10_r5_network.client[25] 	downloads[25] 	11934
scalar tree_4_3_u10_r5_network.client[25] 	avg_time[25] 	0.004901017274
scalar tree_4_3_u10_r5_network.client[26] 	hdistance[26] 	3.2582272201091
scalar tree_4_3_u10_r5_network.client[26] 	downloads[26] 	12094
scalar tree_4_3_u10_r5_network.client[26] 	avg_time[26] 	0.004943109269
scalar tree_4_3_u10_r5_network.client[27] 	hdistance[27] 	3.2591731695169
scalar tree_4_3_u10_r5_network.client[27] 	downloads[27] 	12046
scalar tree_4_3_u10_r5_network.client[27] 	avg_time[27] 	0.004940733644
scalar tree_4_3_u10_r5_network.client[28] 	hdistance[28] 	3.2334991148951
scalar tree_4_3_u10_r5_network.client[28] 	downloads[28] 	11863
scalar tree_4_3_u10_r5_network.client[28] 	avg_time[28] 	0.004891752432
scalar tree_4_3_u10_r5_network.client[29] 	hdistance[29] 	3.2619126406353
scalar tree_4_3_u10_r5_network.client[29] 	downloads[29] 	12088
scalar tree_4_3_u10_r5_network.client[29] 	avg_time[29] 	0.004947131047
scalar tree_4_3_u10_r5_network.client[30] 	hdistance[30] 	3.307924275423
scalar tree_4_3_u10_r5_network.client[30] 	downloads[30] 	11938
scalar tree_4_3_u10_r5_network.client[30] 	avg_time[30] 	0.005017420367
scalar tree_4_3_u10_r5_network.client[31] 	hdistance[31] 	3.2431314134393
scalar tree_4_3_u10_r5_network.client[31] 	downloads[31] 	12084
scalar tree_4_3_u10_r5_network.client[31] 	avg_time[31] 	0.004908471013
scalar tree_4_3_u10_r5_network.client[32] 	hdistance[32] 	3.2695681229638
scalar tree_4_3_u10_r5_network.client[32] 	downloads[32] 	11971
scalar tree_4_3_u10_r5_network.client[32] 	avg_time[32] 	0.004947083493
scalar tree_4_3_u10_r5_network.client[33] 	hdistance[33] 	3.2496025437202
scalar tree_4_3_u10_r5_network.client[33] 	downloads[33] 	11951
scalar tree_4_3_u10_r5_network.client[33] 	avg_time[33] 	0.004918970819
scalar tree_4_3_u10_r5_network.client[34] 	hdistance[34] 	3.2652504546206
scalar tree_4_3_u10_r5_network.client[34] 	downloads[34] 	12098
scalar tree_4_3_u10_r5_network.client[34] 	avg_time[34] 	0.004941216554
scalar tree_4_3_u10_r5_network.client[35] 	hdistance[35] 	3.2289910706835
scalar tree_4_3_u10_r5_network.client[35] 	downloads[35] 	11983
scalar tree_4_3_u10_r5_network.client[35] 	avg_time[35] 	0.004895432222
scalar tree_4_3_u10_r5_network.client[36] 	hdistance[36] 	3.2751198183806
scalar tree_4_3_u10_r5_network.client[36] 	downloads[36] 	11893
scalar tree_4_3_u10_r5_network.client[36] 	avg_time[36] 	0.004965653672
scalar tree_4_3_u10_r5_network.client[37] 	hdistance[37] 	3.2709260347578
scalar tree_4_3_u10_r5_network.client[37] 	downloads[37] 	11911
scalar tree_4_3_u10_r5_network.client[37] 	avg_time[37] 	0.004947544755
scalar tree_4_3_u10_r5_network.client[38] 	hdistance[38] 	3.2595828868189
scalar tree_4_3_u10_r5_network.client[38] 	downloads[38] 	12131
scalar tree_4_3_u10_r5_network.client[38] 	avg_time[38] 	0.004944670423
scalar tree_4_3_u10_r5_network.client[39] 	hdistance[39] 	3.3505330490405
scalar tree_4_3_u10_r5_network.client[39] 	downloads[39] 	11725
scalar tree_4_3_u10_r5_network.client[39] 	avg_time[39] 	0.005072681204
