version 2
run General-3-20160830-15:18:57-8983
attr a 0.9
attr branch 3
attr cd lce
attr configname General
attr cr lru
attr datetime 20160830-15:18:57
attr experiment General
attr fsize 1
attr inifile hw5115/scenario_E/omnetp.ini
attr iterationvars "$name=tree, $levels=5, $branch=3, $un=10, $rep=1, $cd=lce, $cr=lru, $fsize=1, $a=0.9, $sl=nrr, $ttl=1000, $variance=0.05"
attr iterationvars2 "$name=tree, $levels=5, $branch=3, $un=10, $rep=1, $cd=lce, $cr=lru, $fsize=1, $a=0.9, $sl=nrr, $ttl=1000, $variance=0.05, $repetition=0"
attr levels 5
attr measurement "$name=tree, $levels=5, $branch=3, $un=10, $rep=1, $cd=lce, $cr=lru, $fsize=1, $a=0.9, $sl=nrr, $ttl=1000, $variance=0.05"
attr name tree
attr network networks.${name}_${levels}_${branch}_u${un}_r${rep}_network
attr processid 8983
attr rep 1
attr repetition 0
attr replication #0
attr resultdir results
attr runnumber 3
attr seedset 1
attr sl nrr
attr ttl 1000
attr un 10
attr variance 0.05

scalar . 	a 	0.9
scalar . 	branch 	3
scalar . 	fsize 	1
scalar . 	levels 	5
scalar . 	rep 	1
scalar . 	ttl 	1000
scalar . 	un 	10
scalar . 	variance 	0.05
scalar tree_5_3_u10_r1_network.content_distribution 	repo-0 	0
scalar tree_5_3_u10_r1_network.content_distribution 	client-0 	120
scalar tree_5_3_u10_r1_network.content_distribution 	client-1 	119
scalar tree_5_3_u10_r1_network.content_distribution 	client-2 	118
scalar tree_5_3_u10_r1_network.content_distribution 	client-3 	117
scalar tree_5_3_u10_r1_network.content_distribution 	client-4 	116
scalar tree_5_3_u10_r1_network.content_distribution 	client-5 	115
scalar tree_5_3_u10_r1_network.content_distribution 	client-6 	114
scalar tree_5_3_u10_r1_network.content_distribution 	client-7 	113
scalar tree_5_3_u10_r1_network.content_distribution 	client-8 	112
scalar tree_5_3_u10_r1_network.content_distribution 	client-9 	111
scalar tree_5_3_u10_r1_network.content_distribution 	client-10 	110
scalar tree_5_3_u10_r1_network.content_distribution 	client-11 	109
scalar tree_5_3_u10_r1_network.content_distribution 	client-12 	108
scalar tree_5_3_u10_r1_network.content_distribution 	client-13 	107
scalar tree_5_3_u10_r1_network.content_distribution 	client-14 	106
scalar tree_5_3_u10_r1_network.content_distribution 	client-15 	105
scalar tree_5_3_u10_r1_network.content_distribution 	client-16 	104
scalar tree_5_3_u10_r1_network.content_distribution 	client-17 	103
scalar tree_5_3_u10_r1_network.content_distribution 	client-18 	102
scalar tree_5_3_u10_r1_network.content_distribution 	client-19 	101
scalar tree_5_3_u10_r1_network.content_distribution 	client-20 	100
scalar tree_5_3_u10_r1_network.content_distribution 	client-21 	99
scalar tree_5_3_u10_r1_network.content_distribution 	client-22 	98
scalar tree_5_3_u10_r1_network.content_distribution 	client-23 	97
scalar tree_5_3_u10_r1_network.content_distribution 	client-24 	96
scalar tree_5_3_u10_r1_network.content_distribution 	client-25 	95
scalar tree_5_3_u10_r1_network.content_distribution 	client-26 	94
scalar tree_5_3_u10_r1_network.content_distribution 	client-27 	93
scalar tree_5_3_u10_r1_network.content_distribution 	client-28 	92
scalar tree_5_3_u10_r1_network.content_distribution 	client-29 	91
scalar tree_5_3_u10_r1_network.content_distribution 	client-30 	90
scalar tree_5_3_u10_r1_network.content_distribution 	client-31 	89
scalar tree_5_3_u10_r1_network.content_distribution 	client-32 	88
scalar tree_5_3_u10_r1_network.content_distribution 	client-33 	87
scalar tree_5_3_u10_r1_network.content_distribution 	client-34 	86
scalar tree_5_3_u10_r1_network.content_distribution 	client-35 	85
scalar tree_5_3_u10_r1_network.content_distribution 	client-36 	84
scalar tree_5_3_u10_r1_network.content_distribution 	client-37 	83
scalar tree_5_3_u10_r1_network.content_distribution 	client-38 	82
scalar tree_5_3_u10_r1_network.content_distribution 	client-39 	81
scalar tree_5_3_u10_r1_network.content_distribution 	client-40 	80
scalar tree_5_3_u10_r1_network.content_distribution 	client-41 	79
scalar tree_5_3_u10_r1_network.content_distribution 	client-42 	78
scalar tree_5_3_u10_r1_network.content_distribution 	client-43 	77
scalar tree_5_3_u10_r1_network.content_distribution 	client-44 	76
scalar tree_5_3_u10_r1_network.content_distribution 	client-45 	75
scalar tree_5_3_u10_r1_network.content_distribution 	client-46 	74
scalar tree_5_3_u10_r1_network.content_distribution 	client-47 	73
scalar tree_5_3_u10_r1_network.content_distribution 	client-48 	72
scalar tree_5_3_u10_r1_network.content_distribution 	client-49 	71
scalar tree_5_3_u10_r1_network.content_distribution 	client-50 	70
scalar tree_5_3_u10_r1_network.content_distribution 	client-51 	69
scalar tree_5_3_u10_r1_network.content_distribution 	client-52 	68
scalar tree_5_3_u10_r1_network.content_distribution 	client-53 	67
scalar tree_5_3_u10_r1_network.content_distribution 	client-54 	66
scalar tree_5_3_u10_r1_network.content_distribution 	client-55 	65
scalar tree_5_3_u10_r1_network.content_distribution 	client-56 	64
scalar tree_5_3_u10_r1_network.content_distribution 	client-57 	63
scalar tree_5_3_u10_r1_network.content_distribution 	client-58 	62
scalar tree_5_3_u10_r1_network.content_distribution 	client-59 	61
scalar tree_5_3_u10_r1_network.content_distribution 	client-60 	60
scalar tree_5_3_u10_r1_network.content_distribution 	client-61 	59
scalar tree_5_3_u10_r1_network.content_distribution 	client-62 	58
scalar tree_5_3_u10_r1_network.content_distribution 	client-63 	57
scalar tree_5_3_u10_r1_network.content_distribution 	client-64 	56
scalar tree_5_3_u10_r1_network.content_distribution 	client-65 	55
scalar tree_5_3_u10_r1_network.content_distribution 	client-66 	54
scalar tree_5_3_u10_r1_network.content_distribution 	client-67 	53
scalar tree_5_3_u10_r1_network.content_distribution 	client-68 	52
scalar tree_5_3_u10_r1_network.content_distribution 	client-69 	51
scalar tree_5_3_u10_r1_network.content_distribution 	client-70 	50
scalar tree_5_3_u10_r1_network.content_distribution 	client-71 	49
scalar tree_5_3_u10_r1_network.content_distribution 	client-72 	48
scalar tree_5_3_u10_r1_network.content_distribution 	client-73 	47
scalar tree_5_3_u10_r1_network.content_distribution 	client-74 	46
scalar tree_5_3_u10_r1_network.content_distribution 	client-75 	45
scalar tree_5_3_u10_r1_network.content_distribution 	client-76 	44
scalar tree_5_3_u10_r1_network.content_distribution 	client-77 	43
scalar tree_5_3_u10_r1_network.content_distribution 	client-78 	42
scalar tree_5_3_u10_r1_network.content_distribution 	client-79 	41
scalar tree_5_3_u10_r1_network.content_distribution 	client-80 	40
scalar tree_5_3_u10_r1_network.content_distribution 	repo-0_card 	100000
scalar tree_5_3_u10_r1_network.content_distribution 	repo-0_price 	0
scalar tree_5_3_u10_r1_network.statistics 	stabilization_time 	492.4
scalar tree_5_3_u10_r1_network.statistics 	p_hit 	0.21660277972266
scalar tree_5_3_u10_r1_network.statistics 	interests 	32068.537190083
scalar tree_5_3_u10_r1_network.statistics 	data 	24037.47107438
scalar tree_5_3_u10_r1_network.statistics 	hdistance 	3.5381802425447
scalar tree_5_3_u10_r1_network.statistics 	avg_time 	0.005985494367
scalar tree_5_3_u10_r1_network.statistics 	downloads 	971708
scalar tree_5_3_u10_r1_network.statistics 	total_cost 	0
scalar tree_5_3_u10_r1_network.statistics 	total_replicas 	100000
scalar tree_5_3_u10_r1_network.statistics 	inner_hit 	0.45436077504765
scalar tree_5_3_u10_r1_network.node[0].core_layer 	interests[0] 	530586
scalar tree_5_3_u10_r1_network.node[0].core_layer 	repo_load[0] 	530202
scalar tree_5_3_u10_r1_network.node[0].core_layer 	data[0] 	0
scalar tree_5_3_u10_r1_network.node[0].core_layer 	repo_int[0] 	530202
scalar tree_5_3_u10_r1_network.node[0].content_store 	p_hit[0] 	0.00072372810439778
scalar tree_5_3_u10_r1_network.node[0].content_store 	hits[0] 	384
scalar tree_5_3_u10_r1_network.node[0].content_store 	misses[0] 	530202
scalar tree_5_3_u10_r1_network.node[0].content_store 	decision_yes[0] 	530202
scalar tree_5_3_u10_r1_network.node[0].content_store 	decision_no[0] 	0
scalar tree_5_3_u10_r1_network.node[0].content_store 	decision_ratio[0] 	1
scalar tree_5_3_u10_r1_network.node[1].core_layer 	interests[1] 	452786
scalar tree_5_3_u10_r1_network.node[1].core_layer 	data[1] 	450832
scalar tree_5_3_u10_r1_network.node[1].content_store 	p_hit[1] 	0.0042514565379672
scalar tree_5_3_u10_r1_network.node[1].content_store 	hits[1] 	1925
scalar tree_5_3_u10_r1_network.node[1].content_store 	misses[1] 	450861
scalar tree_5_3_u10_r1_network.node[1].content_store 	decision_yes[1] 	450685
scalar tree_5_3_u10_r1_network.node[1].content_store 	decision_no[1] 	0
scalar tree_5_3_u10_r1_network.node[1].content_store 	decision_ratio[1] 	1
scalar tree_5_3_u10_r1_network.node[2].core_layer 	interests[2] 	115777
scalar tree_5_3_u10_r1_network.node[2].core_layer 	data[2] 	113520
scalar tree_5_3_u10_r1_network.node[2].content_store 	p_hit[2] 	0.019468460920563
scalar tree_5_3_u10_r1_network.node[2].content_store 	hits[2] 	2254
scalar tree_5_3_u10_r1_network.node[2].content_store 	misses[2] 	113523
scalar tree_5_3_u10_r1_network.node[2].content_store 	decision_yes[2] 	113477
scalar tree_5_3_u10_r1_network.node[2].content_store 	decision_no[2] 	0
scalar tree_5_3_u10_r1_network.node[2].content_store 	decision_ratio[2] 	1
scalar tree_5_3_u10_r1_network.node[3].core_layer 	interests[3] 	21600
scalar tree_5_3_u10_r1_network.node[3].core_layer 	data[3] 	15520
scalar tree_5_3_u10_r1_network.node[3].content_store 	p_hit[3] 	0.28148148148148
scalar tree_5_3_u10_r1_network.node[3].content_store 	hits[3] 	6080
scalar tree_5_3_u10_r1_network.node[3].content_store 	misses[3] 	15520
scalar tree_5_3_u10_r1_network.node[3].content_store 	decision_yes[3] 	15514
scalar tree_5_3_u10_r1_network.node[3].content_store 	decision_no[3] 	0
scalar tree_5_3_u10_r1_network.node[3].content_store 	decision_ratio[3] 	1
scalar tree_5_3_u10_r1_network.node[4].core_layer 	interests[4] 	149943
scalar tree_5_3_u10_r1_network.node[4].core_layer 	data[4] 	147526
scalar tree_5_3_u10_r1_network.node[4].content_store 	p_hit[4] 	0.016046097517056
scalar tree_5_3_u10_r1_network.node[4].content_store 	hits[4] 	2406
scalar tree_5_3_u10_r1_network.node[4].content_store 	misses[4] 	147537
scalar tree_5_3_u10_r1_network.node[4].content_store 	decision_yes[4] 	147498
scalar tree_5_3_u10_r1_network.node[4].content_store 	decision_no[4] 	0
scalar tree_5_3_u10_r1_network.node[4].content_store 	decision_ratio[4] 	1
scalar tree_5_3_u10_r1_network.node[5].core_layer 	interests[5] 	70091
scalar tree_5_3_u10_r1_network.node[5].core_layer 	data[5] 	65934
scalar tree_5_3_u10_r1_network.node[5].content_store 	p_hit[5] 	0.059223010086887
scalar tree_5_3_u10_r1_network.node[5].content_store 	hits[5] 	4151
scalar tree_5_3_u10_r1_network.node[5].content_store 	misses[5] 	65940
scalar tree_5_3_u10_r1_network.node[5].content_store 	decision_yes[5] 	65914
scalar tree_5_3_u10_r1_network.node[5].content_store 	decision_no[5] 	0
scalar tree_5_3_u10_r1_network.node[5].content_store 	decision_ratio[5] 	1
scalar tree_5_3_u10_r1_network.node[6].core_layer 	interests[6] 	26410
scalar tree_5_3_u10_r1_network.node[6].core_layer 	data[6] 	18925
scalar tree_5_3_u10_r1_network.node[6].content_store 	p_hit[6] 	0.28330177962893
scalar tree_5_3_u10_r1_network.node[6].content_store 	hits[6] 	7482
scalar tree_5_3_u10_r1_network.node[6].content_store 	misses[6] 	18928
scalar tree_5_3_u10_r1_network.node[6].content_store 	decision_yes[6] 	18922
scalar tree_5_3_u10_r1_network.node[6].content_store 	decision_no[6] 	0
scalar tree_5_3_u10_r1_network.node[6].content_store 	decision_ratio[6] 	1
scalar tree_5_3_u10_r1_network.node[7].core_layer 	interests[7] 	158087
scalar tree_5_3_u10_r1_network.node[7].core_layer 	data[7] 	154946
scalar tree_5_3_u10_r1_network.node[7].content_store 	p_hit[7] 	0.019805550108485
scalar tree_5_3_u10_r1_network.node[7].content_store 	hits[7] 	3131
scalar tree_5_3_u10_r1_network.node[7].content_store 	misses[7] 	154956
scalar tree_5_3_u10_r1_network.node[7].content_store 	decision_yes[7] 	154895
scalar tree_5_3_u10_r1_network.node[7].content_store 	decision_no[7] 	0
scalar tree_5_3_u10_r1_network.node[7].content_store 	decision_ratio[7] 	1
scalar tree_5_3_u10_r1_network.node[8].core_layer 	interests[8] 	61153
scalar tree_5_3_u10_r1_network.node[8].core_layer 	data[8] 	58673
scalar tree_5_3_u10_r1_network.node[8].content_store 	p_hit[8] 	0.04052131538927
scalar tree_5_3_u10_r1_network.node[8].content_store 	hits[8] 	2478
scalar tree_5_3_u10_r1_network.node[8].content_store 	misses[8] 	58675
scalar tree_5_3_u10_r1_network.node[8].content_store 	decision_yes[8] 	58653
scalar tree_5_3_u10_r1_network.node[8].content_store 	decision_no[8] 	0
scalar tree_5_3_u10_r1_network.node[8].content_store 	decision_ratio[8] 	1
scalar tree_5_3_u10_r1_network.node[9].core_layer 	interests[9] 	26303
scalar tree_5_3_u10_r1_network.node[9].core_layer 	data[9] 	19280
scalar tree_5_3_u10_r1_network.node[9].content_store 	p_hit[9] 	0.26688970839828
scalar tree_5_3_u10_r1_network.node[9].content_store 	hits[9] 	7020
scalar tree_5_3_u10_r1_network.node[9].content_store 	misses[9] 	19283
scalar tree_5_3_u10_r1_network.node[9].content_store 	decision_yes[9] 	19275
scalar tree_5_3_u10_r1_network.node[9].content_store 	decision_no[9] 	0
scalar tree_5_3_u10_r1_network.node[9].content_store 	decision_ratio[9] 	1
scalar tree_5_3_u10_r1_network.node[10].core_layer 	interests[10] 	157122
scalar tree_5_3_u10_r1_network.node[10].core_layer 	data[10] 	154086
scalar tree_5_3_u10_r1_network.node[10].content_store 	p_hit[10] 	0.019265284301371
scalar tree_5_3_u10_r1_network.node[10].content_store 	hits[10] 	3027
scalar tree_5_3_u10_r1_network.node[10].content_store 	misses[10] 	154095
scalar tree_5_3_u10_r1_network.node[10].content_store 	decision_yes[10] 	154039
scalar tree_5_3_u10_r1_network.node[10].content_store 	decision_no[10] 	0
scalar tree_5_3_u10_r1_network.node[10].content_store 	decision_ratio[10] 	1
scalar tree_5_3_u10_r1_network.node[11].core_layer 	interests[11] 	68253
scalar tree_5_3_u10_r1_network.node[11].core_layer 	data[11] 	64673
scalar tree_5_3_u10_r1_network.node[11].content_store 	p_hit[11] 	0.052393301393345
scalar tree_5_3_u10_r1_network.node[11].content_store 	hits[11] 	3576
scalar tree_5_3_u10_r1_network.node[11].content_store 	misses[11] 	64677
scalar tree_5_3_u10_r1_network.node[11].content_store 	decision_yes[11] 	64657
scalar tree_5_3_u10_r1_network.node[11].content_store 	decision_no[11] 	0
scalar tree_5_3_u10_r1_network.node[11].content_store 	decision_ratio[11] 	1
scalar tree_5_3_u10_r1_network.node[12].core_layer 	interests[12] 	18699
scalar tree_5_3_u10_r1_network.node[12].core_layer 	data[12] 	13446
scalar tree_5_3_u10_r1_network.node[12].content_store 	p_hit[12] 	0.28081715599765
scalar tree_5_3_u10_r1_network.node[12].content_store 	hits[12] 	5251
scalar tree_5_3_u10_r1_network.node[12].content_store 	misses[12] 	13448
scalar tree_5_3_u10_r1_network.node[12].content_store 	decision_yes[12] 	13443
scalar tree_5_3_u10_r1_network.node[12].content_store 	decision_no[12] 	0
scalar tree_5_3_u10_r1_network.node[12].content_store 	decision_ratio[12] 	1
scalar tree_5_3_u10_r1_network.node[13].core_layer 	interests[13] 	46510
scalar tree_5_3_u10_r1_network.node[13].core_layer 	data[13] 	43986
scalar tree_5_3_u10_r1_network.node[13].content_store 	p_hit[13] 	0.054246398623952
scalar tree_5_3_u10_r1_network.node[13].content_store 	hits[13] 	2523
scalar tree_5_3_u10_r1_network.node[13].content_store 	misses[13] 	43987
scalar tree_5_3_u10_r1_network.node[13].content_store 	decision_yes[13] 	43984
scalar tree_5_3_u10_r1_network.node[13].content_store 	decision_no[13] 	0
scalar tree_5_3_u10_r1_network.node[13].content_store 	decision_ratio[13] 	1
scalar tree_5_3_u10_r1_network.node[14].core_layer 	interests[14] 	36001
scalar tree_5_3_u10_r1_network.node[14].core_layer 	data[14] 	31688
scalar tree_5_3_u10_r1_network.node[14].content_store 	p_hit[14] 	0.1197744507097
scalar tree_5_3_u10_r1_network.node[14].content_store 	hits[14] 	4312
scalar tree_5_3_u10_r1_network.node[14].content_store 	misses[14] 	31689
scalar tree_5_3_u10_r1_network.node[14].content_store 	decision_yes[14] 	31686
scalar tree_5_3_u10_r1_network.node[14].content_store 	decision_no[14] 	0
scalar tree_5_3_u10_r1_network.node[14].content_store 	decision_ratio[14] 	1
scalar tree_5_3_u10_r1_network.node[15].core_layer 	interests[15] 	20787
scalar tree_5_3_u10_r1_network.node[15].core_layer 	data[15] 	15133
scalar tree_5_3_u10_r1_network.node[15].content_store 	p_hit[15] 	0.2719488141627
scalar tree_5_3_u10_r1_network.node[15].content_store 	hits[15] 	5653
scalar tree_5_3_u10_r1_network.node[15].content_store 	misses[15] 	15134
scalar tree_5_3_u10_r1_network.node[15].content_store 	decision_yes[15] 	15133
scalar tree_5_3_u10_r1_network.node[15].content_store 	decision_no[15] 	0
scalar tree_5_3_u10_r1_network.node[15].content_store 	decision_ratio[15] 	1
scalar tree_5_3_u10_r1_network.node[16].core_layer 	interests[16] 	51678
scalar tree_5_3_u10_r1_network.node[16].core_layer 	data[16] 	48122
scalar tree_5_3_u10_r1_network.node[16].content_store 	p_hit[16] 	0.068810712488873
scalar tree_5_3_u10_r1_network.node[16].content_store 	hits[16] 	3556
scalar tree_5_3_u10_r1_network.node[16].content_store 	misses[16] 	48122
scalar tree_5_3_u10_r1_network.node[16].content_store 	decision_yes[16] 	48119
scalar tree_5_3_u10_r1_network.node[16].content_store 	decision_no[16] 	0
scalar tree_5_3_u10_r1_network.node[16].content_store 	decision_ratio[16] 	1
scalar tree_5_3_u10_r1_network.node[17].core_layer 	interests[17] 	31004
scalar tree_5_3_u10_r1_network.node[17].core_layer 	data[17] 	28072
scalar tree_5_3_u10_r1_network.node[17].content_store 	p_hit[17] 	0.094568442781577
scalar tree_5_3_u10_r1_network.node[17].content_store 	hits[17] 	2932
scalar tree_5_3_u10_r1_network.node[17].content_store 	misses[17] 	28072
scalar tree_5_3_u10_r1_network.node[17].content_store 	decision_yes[17] 	28071
scalar tree_5_3_u10_r1_network.node[17].content_store 	decision_no[17] 	0
scalar tree_5_3_u10_r1_network.node[17].content_store 	decision_ratio[17] 	1
scalar tree_5_3_u10_r1_network.node[18].core_layer 	interests[18] 	20399
scalar tree_5_3_u10_r1_network.node[18].core_layer 	data[18] 	14636
scalar tree_5_3_u10_r1_network.node[18].content_store 	p_hit[18] 	0.28251384871807
scalar tree_5_3_u10_r1_network.node[18].content_store 	hits[18] 	5763
scalar tree_5_3_u10_r1_network.node[18].content_store 	misses[18] 	14636
scalar tree_5_3_u10_r1_network.node[18].content_store 	decision_yes[18] 	14633
scalar tree_5_3_u10_r1_network.node[18].content_store 	decision_no[18] 	0
scalar tree_5_3_u10_r1_network.node[18].content_store 	decision_ratio[18] 	1
scalar tree_5_3_u10_r1_network.node[19].core_layer 	interests[19] 	51528
scalar tree_5_3_u10_r1_network.node[19].core_layer 	data[19] 	48010
scalar tree_5_3_u10_r1_network.node[19].content_store 	p_hit[19] 	0.06827356000621
scalar tree_5_3_u10_r1_network.node[19].content_store 	hits[19] 	3518
scalar tree_5_3_u10_r1_network.node[19].content_store 	misses[19] 	48010
scalar tree_5_3_u10_r1_network.node[19].content_store 	decision_yes[19] 	48005
scalar tree_5_3_u10_r1_network.node[19].content_store 	decision_no[19] 	0
scalar tree_5_3_u10_r1_network.node[19].content_store 	decision_ratio[19] 	1
scalar tree_5_3_u10_r1_network.node[20].core_layer 	interests[20] 	34859
scalar tree_5_3_u10_r1_network.node[20].core_layer 	data[20] 	31247
scalar tree_5_3_u10_r1_network.node[20].content_store 	p_hit[20] 	0.1035887432227
scalar tree_5_3_u10_r1_network.node[20].content_store 	hits[20] 	3611
scalar tree_5_3_u10_r1_network.node[20].content_store 	misses[20] 	31248
scalar tree_5_3_u10_r1_network.node[20].content_store 	decision_yes[20] 	31244
scalar tree_5_3_u10_r1_network.node[20].content_store 	decision_no[20] 	0
scalar tree_5_3_u10_r1_network.node[20].content_store 	decision_ratio[20] 	1
scalar tree_5_3_u10_r1_network.node[21].core_layer 	interests[21] 	15359
scalar tree_5_3_u10_r1_network.node[21].core_layer 	data[21] 	11156
scalar tree_5_3_u10_r1_network.node[21].content_store 	p_hit[21] 	0.27365062829611
scalar tree_5_3_u10_r1_network.node[21].content_store 	hits[21] 	4203
scalar tree_5_3_u10_r1_network.node[21].content_store 	misses[21] 	11156
scalar tree_5_3_u10_r1_network.node[21].content_store 	decision_yes[21] 	11155
scalar tree_5_3_u10_r1_network.node[21].content_store 	decision_no[21] 	0
scalar tree_5_3_u10_r1_network.node[21].content_store 	decision_ratio[21] 	1
scalar tree_5_3_u10_r1_network.node[22].core_layer 	interests[22] 	48362
scalar tree_5_3_u10_r1_network.node[22].core_layer 	data[22] 	45571
scalar tree_5_3_u10_r1_network.node[22].content_store 	p_hit[22] 	0.05766924444812
scalar tree_5_3_u10_r1_network.node[22].content_store 	hits[22] 	2789
scalar tree_5_3_u10_r1_network.node[22].content_store 	misses[22] 	45573
scalar tree_5_3_u10_r1_network.node[22].content_store 	decision_yes[22] 	45565
scalar tree_5_3_u10_r1_network.node[22].content_store 	decision_no[22] 	0
scalar tree_5_3_u10_r1_network.node[22].content_store 	decision_ratio[22] 	1
scalar tree_5_3_u10_r1_network.node[23].core_layer 	interests[23] 	35192
scalar tree_5_3_u10_r1_network.node[23].core_layer 	data[23] 	30962
scalar tree_5_3_u10_r1_network.node[23].content_store 	p_hit[23] 	0.12014094112298
scalar tree_5_3_u10_r1_network.node[23].content_store 	hits[23] 	4228
scalar tree_5_3_u10_r1_network.node[23].content_store 	misses[23] 	30964
scalar tree_5_3_u10_r1_network.node[23].content_store 	decision_yes[23] 	30960
scalar tree_5_3_u10_r1_network.node[23].content_store 	decision_no[23] 	0
scalar tree_5_3_u10_r1_network.node[23].content_store 	decision_ratio[23] 	1
scalar tree_5_3_u10_r1_network.node[24].core_layer 	interests[24] 	20518
scalar tree_5_3_u10_r1_network.node[24].core_layer 	data[24] 	14448
scalar tree_5_3_u10_r1_network.node[24].content_store 	p_hit[24] 	0.29578906326153
scalar tree_5_3_u10_r1_network.node[24].content_store 	hits[24] 	6069
scalar tree_5_3_u10_r1_network.node[24].content_store 	misses[24] 	14449
scalar tree_5_3_u10_r1_network.node[24].content_store 	decision_yes[24] 	14448
scalar tree_5_3_u10_r1_network.node[24].content_store 	decision_no[24] 	0
scalar tree_5_3_u10_r1_network.node[24].content_store 	decision_ratio[24] 	1
scalar tree_5_3_u10_r1_network.node[25].core_layer 	interests[25] 	51667
scalar tree_5_3_u10_r1_network.node[25].core_layer 	data[25] 	48160
scalar tree_5_3_u10_r1_network.node[25].content_store 	p_hit[25] 	0.067857626724989
scalar tree_5_3_u10_r1_network.node[25].content_store 	hits[25] 	3506
scalar tree_5_3_u10_r1_network.node[25].content_store 	misses[25] 	48161
scalar tree_5_3_u10_r1_network.node[25].content_store 	decision_yes[25] 	48157
scalar tree_5_3_u10_r1_network.node[25].content_store 	decision_no[25] 	0
scalar tree_5_3_u10_r1_network.node[25].content_store 	decision_ratio[25] 	1
scalar tree_5_3_u10_r1_network.node[26].core_layer 	interests[26] 	29847
scalar tree_5_3_u10_r1_network.node[26].core_layer 	data[26] 	27312
scalar tree_5_3_u10_r1_network.node[26].content_store 	p_hit[26] 	0.084799142292358
scalar tree_5_3_u10_r1_network.node[26].content_store 	hits[26] 	2531
scalar tree_5_3_u10_r1_network.node[26].content_store 	misses[26] 	27316
scalar tree_5_3_u10_r1_network.node[26].content_store 	decision_yes[26] 	27311
scalar tree_5_3_u10_r1_network.node[26].content_store 	decision_no[26] 	0
scalar tree_5_3_u10_r1_network.node[26].content_store 	decision_ratio[26] 	1
scalar tree_5_3_u10_r1_network.node[27].core_layer 	interests[27] 	20510
scalar tree_5_3_u10_r1_network.node[27].core_layer 	data[27] 	15047
scalar tree_5_3_u10_r1_network.node[27].content_store 	p_hit[27] 	0.2663578742077
scalar tree_5_3_u10_r1_network.node[27].content_store 	hits[27] 	5463
scalar tree_5_3_u10_r1_network.node[27].content_store 	misses[27] 	15047
scalar tree_5_3_u10_r1_network.node[27].content_store 	decision_yes[27] 	15047
scalar tree_5_3_u10_r1_network.node[27].content_store 	decision_no[27] 	0
scalar tree_5_3_u10_r1_network.node[27].content_store 	decision_ratio[27] 	1
scalar tree_5_3_u10_r1_network.node[28].core_layer 	interests[28] 	52178
scalar tree_5_3_u10_r1_network.node[28].core_layer 	data[28] 	48754
scalar tree_5_3_u10_r1_network.node[28].content_store 	p_hit[28] 	0.065525700486795
scalar tree_5_3_u10_r1_network.node[28].content_store 	hits[28] 	3419
scalar tree_5_3_u10_r1_network.node[28].content_store 	misses[28] 	48759
scalar tree_5_3_u10_r1_network.node[28].content_store 	decision_yes[28] 	48753
scalar tree_5_3_u10_r1_network.node[28].content_store 	decision_no[28] 	0
scalar tree_5_3_u10_r1_network.node[28].content_store 	decision_ratio[28] 	1
scalar tree_5_3_u10_r1_network.node[29].core_layer 	interests[29] 	34538
scalar tree_5_3_u10_r1_network.node[29].core_layer 	data[29] 	30974
scalar tree_5_3_u10_r1_network.node[29].content_store 	p_hit[29] 	0.103190688517
scalar tree_5_3_u10_r1_network.node[29].content_store 	hits[29] 	3564
scalar tree_5_3_u10_r1_network.node[29].content_store 	misses[29] 	30974
scalar tree_5_3_u10_r1_network.node[29].content_store 	decision_yes[29] 	30968
scalar tree_5_3_u10_r1_network.node[29].content_store 	decision_no[29] 	0
scalar tree_5_3_u10_r1_network.node[29].content_store 	decision_ratio[29] 	1
scalar tree_5_3_u10_r1_network.node[30].core_layer 	interests[30] 	15543
scalar tree_5_3_u10_r1_network.node[30].core_layer 	data[30] 	11421
scalar tree_5_3_u10_r1_network.node[30].content_store 	p_hit[30] 	0.26513543074053
scalar tree_5_3_u10_r1_network.node[30].content_store 	hits[30] 	4121
scalar tree_5_3_u10_r1_network.node[30].content_store 	misses[30] 	11422
scalar tree_5_3_u10_r1_network.node[30].content_store 	decision_yes[30] 	11420
scalar tree_5_3_u10_r1_network.node[30].content_store 	decision_no[30] 	0
scalar tree_5_3_u10_r1_network.node[30].content_store 	decision_ratio[30] 	1
scalar tree_5_3_u10_r1_network.node[31].core_layer 	interests[31] 	47667
scalar tree_5_3_u10_r1_network.node[31].core_layer 	data[31] 	44780
scalar tree_5_3_u10_r1_network.node[31].content_store 	p_hit[31] 	0.060524052279355
scalar tree_5_3_u10_r1_network.node[31].content_store 	hits[31] 	2885
scalar tree_5_3_u10_r1_network.node[31].content_store 	misses[31] 	44782
scalar tree_5_3_u10_r1_network.node[31].content_store 	decision_yes[31] 	44778
scalar tree_5_3_u10_r1_network.node[31].content_store 	decision_no[31] 	0
scalar tree_5_3_u10_r1_network.node[31].content_store 	decision_ratio[31] 	1
scalar tree_5_3_u10_r1_network.node[32].core_layer 	interests[32] 	35831
scalar tree_5_3_u10_r1_network.node[32].core_layer 	data[32] 	31656
scalar tree_5_3_u10_r1_network.node[32].content_store 	p_hit[32] 	0.11649130641065
scalar tree_5_3_u10_r1_network.node[32].content_store 	hits[32] 	4174
scalar tree_5_3_u10_r1_network.node[32].content_store 	misses[32] 	31657
scalar tree_5_3_u10_r1_network.node[32].content_store 	decision_yes[32] 	31651
scalar tree_5_3_u10_r1_network.node[32].content_store 	decision_no[32] 	0
scalar tree_5_3_u10_r1_network.node[32].content_store 	decision_ratio[32] 	1
scalar tree_5_3_u10_r1_network.node[33].core_layer 	interests[33] 	19703
scalar tree_5_3_u10_r1_network.node[33].core_layer 	data[33] 	13812
scalar tree_5_3_u10_r1_network.node[33].content_store 	p_hit[33] 	0.29893924783028
scalar tree_5_3_u10_r1_network.node[33].content_store 	hits[33] 	5890
scalar tree_5_3_u10_r1_network.node[33].content_store 	misses[33] 	13813
scalar tree_5_3_u10_r1_network.node[33].content_store 	decision_yes[33] 	13811
scalar tree_5_3_u10_r1_network.node[33].content_store 	decision_no[33] 	0
scalar tree_5_3_u10_r1_network.node[33].content_store 	decision_ratio[33] 	1
scalar tree_5_3_u10_r1_network.node[34].core_layer 	interests[34] 	51879
scalar tree_5_3_u10_r1_network.node[34].core_layer 	data[34] 	48335
scalar tree_5_3_u10_r1_network.node[34].content_store 	p_hit[34] 	0.068312804795775
scalar tree_5_3_u10_r1_network.node[34].content_store 	hits[34] 	3544
scalar tree_5_3_u10_r1_network.node[34].content_store 	misses[34] 	48335
scalar tree_5_3_u10_r1_network.node[34].content_store 	decision_yes[34] 	48325
scalar tree_5_3_u10_r1_network.node[34].content_store 	decision_no[34] 	0
scalar tree_5_3_u10_r1_network.node[34].content_store 	decision_ratio[34] 	1
scalar tree_5_3_u10_r1_network.node[35].core_layer 	interests[35] 	31296
scalar tree_5_3_u10_r1_network.node[35].core_layer 	data[35] 	28388
scalar tree_5_3_u10_r1_network.node[35].content_store 	p_hit[35] 	0.09288726993865
scalar tree_5_3_u10_r1_network.node[35].content_store 	hits[35] 	2907
scalar tree_5_3_u10_r1_network.node[35].content_store 	misses[35] 	28389
scalar tree_5_3_u10_r1_network.node[35].content_store 	decision_yes[35] 	28386
scalar tree_5_3_u10_r1_network.node[35].content_store 	decision_no[35] 	0
scalar tree_5_3_u10_r1_network.node[35].content_store 	decision_ratio[35] 	1
scalar tree_5_3_u10_r1_network.node[36].core_layer 	interests[36] 	19432
scalar tree_5_3_u10_r1_network.node[36].core_layer 	data[36] 	13805
scalar tree_5_3_u10_r1_network.node[36].content_store 	p_hit[36] 	0.28957389872375
scalar tree_5_3_u10_r1_network.node[36].content_store 	hits[36] 	5627
scalar tree_5_3_u10_r1_network.node[36].content_store 	misses[36] 	13805
scalar tree_5_3_u10_r1_network.node[36].content_store 	decision_yes[36] 	13805
scalar tree_5_3_u10_r1_network.node[36].content_store 	decision_no[36] 	0
scalar tree_5_3_u10_r1_network.node[36].content_store 	decision_ratio[36] 	1
scalar tree_5_3_u10_r1_network.node[37].core_layer 	interests[37] 	51108
scalar tree_5_3_u10_r1_network.node[37].core_layer 	data[37] 	47609
scalar tree_5_3_u10_r1_network.node[37].content_store 	p_hit[37] 	0.068365030914925
scalar tree_5_3_u10_r1_network.node[37].content_store 	hits[37] 	3494
scalar tree_5_3_u10_r1_network.node[37].content_store 	misses[37] 	47614
scalar tree_5_3_u10_r1_network.node[37].content_store 	decision_yes[37] 	47604
scalar tree_5_3_u10_r1_network.node[37].content_store 	decision_no[37] 	0
scalar tree_5_3_u10_r1_network.node[37].content_store 	decision_ratio[37] 	1
scalar tree_5_3_u10_r1_network.node[38].core_layer 	interests[38] 	34744
scalar tree_5_3_u10_r1_network.node[38].core_layer 	data[38] 	31217
scalar tree_5_3_u10_r1_network.node[38].content_store 	p_hit[38] 	0.10151393046281
scalar tree_5_3_u10_r1_network.node[38].content_store 	hits[38] 	3527
scalar tree_5_3_u10_r1_network.node[38].content_store 	misses[38] 	31217
scalar tree_5_3_u10_r1_network.node[38].content_store 	decision_yes[38] 	31213
scalar tree_5_3_u10_r1_network.node[38].content_store 	decision_no[38] 	0
scalar tree_5_3_u10_r1_network.node[38].content_store 	decision_ratio[38] 	1
scalar tree_5_3_u10_r1_network.node[39].core_layer 	interests[39] 	14801
scalar tree_5_3_u10_r1_network.node[39].core_layer 	data[39] 	11256
scalar tree_5_3_u10_r1_network.node[39].content_store 	p_hit[39] 	0.2395784068644
scalar tree_5_3_u10_r1_network.node[39].content_store 	hits[39] 	3546
scalar tree_5_3_u10_r1_network.node[39].content_store 	misses[39] 	11255
scalar tree_5_3_u10_r1_network.node[39].content_store 	decision_yes[39] 	11256
scalar tree_5_3_u10_r1_network.node[39].content_store 	decision_no[39] 	0
scalar tree_5_3_u10_r1_network.node[39].content_store 	decision_ratio[39] 	1
scalar tree_5_3_u10_r1_network.node[40].core_layer 	interests[40] 	13058
scalar tree_5_3_u10_r1_network.node[40].core_layer 	data[40] 	10161
scalar tree_5_3_u10_r1_network.node[40].content_store 	p_hit[40] 	0.22185633328228
scalar tree_5_3_u10_r1_network.node[40].content_store 	hits[40] 	2897
scalar tree_5_3_u10_r1_network.node[40].content_store 	misses[40] 	10161
scalar tree_5_3_u10_r1_network.node[40].content_store 	decision_yes[40] 	10161
scalar tree_5_3_u10_r1_network.node[40].content_store 	decision_no[40] 	0
scalar tree_5_3_u10_r1_network.node[40].content_store 	decision_ratio[40] 	1
scalar tree_5_3_u10_r1_network.node[41].core_layer 	interests[41] 	14029
scalar tree_5_3_u10_r1_network.node[41].core_layer 	data[41] 	9905
scalar tree_5_3_u10_r1_network.node[41].content_store 	p_hit[41] 	0.29381994440088
scalar tree_5_3_u10_r1_network.node[41].content_store 	hits[41] 	4122
scalar tree_5_3_u10_r1_network.node[41].content_store 	misses[41] 	9907
scalar tree_5_3_u10_r1_network.node[41].content_store 	decision_yes[41] 	9905
scalar tree_5_3_u10_r1_network.node[41].content_store 	decision_no[41] 	0
scalar tree_5_3_u10_r1_network.node[41].content_store 	decision_ratio[41] 	1
scalar tree_5_3_u10_r1_network.node[42].core_layer 	interests[42] 	14018
scalar tree_5_3_u10_r1_network.node[42].core_layer 	data[42] 	10179
scalar tree_5_3_u10_r1_network.node[42].content_store 	p_hit[42] 	0.27371950349551
scalar tree_5_3_u10_r1_network.node[42].content_store 	hits[42] 	3837
scalar tree_5_3_u10_r1_network.node[42].content_store 	misses[42] 	10181
scalar tree_5_3_u10_r1_network.node[42].content_store 	decision_yes[42] 	10179
scalar tree_5_3_u10_r1_network.node[42].content_store 	decision_no[42] 	0
scalar tree_5_3_u10_r1_network.node[42].content_store 	decision_ratio[42] 	1
scalar tree_5_3_u10_r1_network.node[43].core_layer 	interests[43] 	14182
scalar tree_5_3_u10_r1_network.node[43].core_layer 	data[43] 	10156
scalar tree_5_3_u10_r1_network.node[43].content_store 	p_hit[43] 	0.28388097588492
scalar tree_5_3_u10_r1_network.node[43].content_store 	hits[43] 	4026
scalar tree_5_3_u10_r1_network.node[43].content_store 	misses[43] 	10156
scalar tree_5_3_u10_r1_network.node[43].content_store 	decision_yes[43] 	10156
scalar tree_5_3_u10_r1_network.node[43].content_store 	decision_no[43] 	0
scalar tree_5_3_u10_r1_network.node[43].content_store 	decision_ratio[43] 	1
scalar tree_5_3_u10_r1_network.node[44].core_layer 	interests[44] 	13184
scalar tree_5_3_u10_r1_network.node[44].core_layer 	data[44] 	10230
scalar tree_5_3_u10_r1_network.node[44].content_store 	p_hit[44] 	0.22405946601942
scalar tree_5_3_u10_r1_network.node[44].content_store 	hits[44] 	2954
scalar tree_5_3_u10_r1_network.node[44].content_store 	misses[44] 	10230
scalar tree_5_3_u10_r1_network.node[44].content_store 	decision_yes[44] 	10230
scalar tree_5_3_u10_r1_network.node[44].content_store 	decision_no[44] 	0
scalar tree_5_3_u10_r1_network.node[44].content_store 	decision_ratio[44] 	1
scalar tree_5_3_u10_r1_network.node[45].core_layer 	interests[45] 	13797
scalar tree_5_3_u10_r1_network.node[45].core_layer 	data[45] 	9858
scalar tree_5_3_u10_r1_network.node[45].content_store 	p_hit[45] 	0.28542436761615
scalar tree_5_3_u10_r1_network.node[45].content_store 	hits[45] 	3938
scalar tree_5_3_u10_r1_network.node[45].content_store 	misses[45] 	9859
scalar tree_5_3_u10_r1_network.node[45].content_store 	decision_yes[45] 	9858
scalar tree_5_3_u10_r1_network.node[45].content_store 	decision_no[45] 	0
scalar tree_5_3_u10_r1_network.node[45].content_store 	decision_ratio[45] 	1
scalar tree_5_3_u10_r1_network.node[46].core_layer 	interests[46] 	13986
scalar tree_5_3_u10_r1_network.node[46].core_layer 	data[46] 	10048
scalar tree_5_3_u10_r1_network.node[46].content_store 	p_hit[46] 	0.28156728156728
scalar tree_5_3_u10_r1_network.node[46].content_store 	hits[46] 	3938
scalar tree_5_3_u10_r1_network.node[46].content_store 	misses[46] 	10048
scalar tree_5_3_u10_r1_network.node[46].content_store 	decision_yes[46] 	10048
scalar tree_5_3_u10_r1_network.node[46].content_store 	decision_no[46] 	0
scalar tree_5_3_u10_r1_network.node[46].content_store 	decision_ratio[46] 	1
scalar tree_5_3_u10_r1_network.node[47].core_layer 	interests[47] 	13751
scalar tree_5_3_u10_r1_network.node[47].core_layer 	data[47] 	9896
scalar tree_5_3_u10_r1_network.node[47].content_store 	p_hit[47] 	0.2803432477638
scalar tree_5_3_u10_r1_network.node[47].content_store 	hits[47] 	3855
scalar tree_5_3_u10_r1_network.node[47].content_store 	misses[47] 	9896
scalar tree_5_3_u10_r1_network.node[47].content_store 	decision_yes[47] 	9896
scalar tree_5_3_u10_r1_network.node[47].content_store 	decision_no[47] 	0
scalar tree_5_3_u10_r1_network.node[47].content_store 	decision_ratio[47] 	1
scalar tree_5_3_u10_r1_network.node[48].core_layer 	interests[48] 	12868
scalar tree_5_3_u10_r1_network.node[48].core_layer 	data[48] 	10237
scalar tree_5_3_u10_r1_network.node[48].content_store 	p_hit[48] 	0.2043829654958
scalar tree_5_3_u10_r1_network.node[48].content_store 	hits[48] 	2630
scalar tree_5_3_u10_r1_network.node[48].content_store 	misses[48] 	10238
scalar tree_5_3_u10_r1_network.node[48].content_store 	decision_yes[48] 	10237
scalar tree_5_3_u10_r1_network.node[48].content_store 	decision_no[48] 	0
scalar tree_5_3_u10_r1_network.node[48].content_store 	decision_ratio[48] 	1
scalar tree_5_3_u10_r1_network.node[49].core_layer 	interests[49] 	13323
scalar tree_5_3_u10_r1_network.node[49].core_layer 	data[49] 	10009
scalar tree_5_3_u10_r1_network.node[49].content_store 	p_hit[49] 	0.24874277565113
scalar tree_5_3_u10_r1_network.node[49].content_store 	hits[49] 	3314
scalar tree_5_3_u10_r1_network.node[49].content_store 	misses[49] 	10009
scalar tree_5_3_u10_r1_network.node[49].content_store 	decision_yes[49] 	10009
scalar tree_5_3_u10_r1_network.node[49].content_store 	decision_no[49] 	0
scalar tree_5_3_u10_r1_network.node[49].content_store 	decision_ratio[49] 	1
scalar tree_5_3_u10_r1_network.node[50].core_layer 	interests[50] 	13916
scalar tree_5_3_u10_r1_network.node[50].core_layer 	data[50] 	10025
scalar tree_5_3_u10_r1_network.node[50].content_store 	p_hit[50] 	0.27953434895085
scalar tree_5_3_u10_r1_network.node[50].content_store 	hits[50] 	3890
scalar tree_5_3_u10_r1_network.node[50].content_store 	misses[50] 	10026
scalar tree_5_3_u10_r1_network.node[50].content_store 	decision_yes[50] 	10025
scalar tree_5_3_u10_r1_network.node[50].content_store 	decision_no[50] 	0
scalar tree_5_3_u10_r1_network.node[50].content_store 	decision_ratio[50] 	1
scalar tree_5_3_u10_r1_network.node[51].core_layer 	interests[51] 	14160
scalar tree_5_3_u10_r1_network.node[51].core_layer 	data[51] 	10209
scalar tree_5_3_u10_r1_network.node[51].content_store 	p_hit[51] 	0.27888418079096
scalar tree_5_3_u10_r1_network.node[51].content_store 	hits[51] 	3949
scalar tree_5_3_u10_r1_network.node[51].content_store 	misses[51] 	10211
scalar tree_5_3_u10_r1_network.node[51].content_store 	decision_yes[51] 	10209
scalar tree_5_3_u10_r1_network.node[51].content_store 	decision_no[51] 	0
scalar tree_5_3_u10_r1_network.node[51].content_store 	decision_ratio[51] 	1
scalar tree_5_3_u10_r1_network.node[52].core_layer 	interests[52] 	14075
scalar tree_5_3_u10_r1_network.node[52].core_layer 	data[52] 	10047
scalar tree_5_3_u10_r1_network.node[52].content_store 	p_hit[52] 	0.28625222024867
scalar tree_5_3_u10_r1_network.node[52].content_store 	hits[52] 	4029
scalar tree_5_3_u10_r1_network.node[52].content_store 	misses[52] 	10046
scalar tree_5_3_u10_r1_network.node[52].content_store 	decision_yes[52] 	10047
scalar tree_5_3_u10_r1_network.node[52].content_store 	decision_no[52] 	0
scalar tree_5_3_u10_r1_network.node[52].content_store 	decision_ratio[52] 	1
scalar tree_5_3_u10_r1_network.node[53].core_layer 	interests[53] 	12674
scalar tree_5_3_u10_r1_network.node[53].core_layer 	data[53] 	10030
scalar tree_5_3_u10_r1_network.node[53].content_store 	p_hit[53] 	0.20853716269528
scalar tree_5_3_u10_r1_network.node[53].content_store 	hits[53] 	2643
scalar tree_5_3_u10_r1_network.node[53].content_store 	misses[53] 	10031
scalar tree_5_3_u10_r1_network.node[53].content_store 	decision_yes[53] 	10030
scalar tree_5_3_u10_r1_network.node[53].content_store 	decision_no[53] 	0
scalar tree_5_3_u10_r1_network.node[53].content_store 	decision_ratio[53] 	1
scalar tree_5_3_u10_r1_network.node[54].core_layer 	interests[54] 	13875
scalar tree_5_3_u10_r1_network.node[54].core_layer 	data[54] 	10166
scalar tree_5_3_u10_r1_network.node[54].content_store 	p_hit[54] 	0.26724324324324
scalar tree_5_3_u10_r1_network.node[54].content_store 	hits[54] 	3708
scalar tree_5_3_u10_r1_network.node[54].content_store 	misses[54] 	10167
scalar tree_5_3_u10_r1_network.node[54].content_store 	decision_yes[54] 	10166
scalar tree_5_3_u10_r1_network.node[54].content_store 	decision_no[54] 	0
scalar tree_5_3_u10_r1_network.node[54].content_store 	decision_ratio[54] 	1
scalar tree_5_3_u10_r1_network.node[55].core_layer 	interests[55] 	13972
scalar tree_5_3_u10_r1_network.node[55].core_layer 	data[55] 	9914
scalar tree_5_3_u10_r1_network.node[55].content_store 	p_hit[55] 	0.29043801889493
scalar tree_5_3_u10_r1_network.node[55].content_store 	hits[55] 	4058
scalar tree_5_3_u10_r1_network.node[55].content_store 	misses[55] 	9914
scalar tree_5_3_u10_r1_network.node[55].content_store 	decision_yes[55] 	9914
scalar tree_5_3_u10_r1_network.node[55].content_store 	decision_no[55] 	0
scalar tree_5_3_u10_r1_network.node[55].content_store 	decision_ratio[55] 	1
scalar tree_5_3_u10_r1_network.node[56].core_layer 	interests[56] 	13800
scalar tree_5_3_u10_r1_network.node[56].core_layer 	data[56] 	10073
scalar tree_5_3_u10_r1_network.node[56].content_store 	p_hit[56] 	0.27007246376812
scalar tree_5_3_u10_r1_network.node[56].content_store 	hits[56] 	3727
scalar tree_5_3_u10_r1_network.node[56].content_store 	misses[56] 	10073
scalar tree_5_3_u10_r1_network.node[56].content_store 	decision_yes[56] 	10073
scalar tree_5_3_u10_r1_network.node[56].content_store 	decision_no[56] 	0
scalar tree_5_3_u10_r1_network.node[56].content_store 	decision_ratio[56] 	1
scalar tree_5_3_u10_r1_network.node[57].core_layer 	interests[57] 	12620
scalar tree_5_3_u10_r1_network.node[57].core_layer 	data[57] 	10118
scalar tree_5_3_u10_r1_network.node[57].content_store 	p_hit[57] 	0.19809825673534
scalar tree_5_3_u10_r1_network.node[57].content_store 	hits[57] 	2500
scalar tree_5_3_u10_r1_network.node[57].content_store 	misses[57] 	10120
scalar tree_5_3_u10_r1_network.node[57].content_store 	decision_yes[57] 	10118
scalar tree_5_3_u10_r1_network.node[57].content_store 	decision_no[57] 	0
scalar tree_5_3_u10_r1_network.node[57].content_store 	decision_ratio[57] 	1
scalar tree_5_3_u10_r1_network.node[58].core_layer 	interests[58] 	13363
scalar tree_5_3_u10_r1_network.node[58].core_layer 	data[58] 	10134
scalar tree_5_3_u10_r1_network.node[58].content_store 	p_hit[58] 	0.24163735688094
scalar tree_5_3_u10_r1_network.node[58].content_store 	hits[58] 	3229
scalar tree_5_3_u10_r1_network.node[58].content_store 	misses[58] 	10134
scalar tree_5_3_u10_r1_network.node[58].content_store 	decision_yes[58] 	10134
scalar tree_5_3_u10_r1_network.node[58].content_store 	decision_no[58] 	0
scalar tree_5_3_u10_r1_network.node[58].content_store 	decision_ratio[58] 	1
scalar tree_5_3_u10_r1_network.node[59].core_layer 	interests[59] 	14086
scalar tree_5_3_u10_r1_network.node[59].core_layer 	data[59] 	10047
scalar tree_5_3_u10_r1_network.node[59].content_store 	p_hit[59] 	0.28673860570779
scalar tree_5_3_u10_r1_network.node[59].content_store 	hits[59] 	4039
scalar tree_5_3_u10_r1_network.node[59].content_store 	misses[59] 	10047
scalar tree_5_3_u10_r1_network.node[59].content_store 	decision_yes[59] 	10047
scalar tree_5_3_u10_r1_network.node[59].content_store 	decision_no[59] 	0
scalar tree_5_3_u10_r1_network.node[59].content_store 	decision_ratio[59] 	1
scalar tree_5_3_u10_r1_network.node[60].core_layer 	interests[60] 	13796
scalar tree_5_3_u10_r1_network.node[60].core_layer 	data[60] 	10139
scalar tree_5_3_u10_r1_network.node[60].content_store 	p_hit[60] 	0.26507683386489
scalar tree_5_3_u10_r1_network.node[60].content_store 	hits[60] 	3657
scalar tree_5_3_u10_r1_network.node[60].content_store 	misses[60] 	10139
scalar tree_5_3_u10_r1_network.node[60].content_store 	decision_yes[60] 	10139
scalar tree_5_3_u10_r1_network.node[60].content_store 	decision_no[60] 	0
scalar tree_5_3_u10_r1_network.node[60].content_store 	decision_ratio[60] 	1
scalar tree_5_3_u10_r1_network.node[61].core_layer 	interests[61] 	13998
scalar tree_5_3_u10_r1_network.node[61].core_layer 	data[61] 	10141
scalar tree_5_3_u10_r1_network.node[61].content_store 	p_hit[61] 	0.27553936276611
scalar tree_5_3_u10_r1_network.node[61].content_store 	hits[61] 	3857
scalar tree_5_3_u10_r1_network.node[61].content_store 	misses[61] 	10141
scalar tree_5_3_u10_r1_network.node[61].content_store 	decision_yes[61] 	10141
scalar tree_5_3_u10_r1_network.node[61].content_store 	decision_no[61] 	0
scalar tree_5_3_u10_r1_network.node[61].content_store 	decision_ratio[61] 	1
scalar tree_5_3_u10_r1_network.node[62].core_layer 	interests[62] 	13032
scalar tree_5_3_u10_r1_network.node[62].core_layer 	data[62] 	10064
scalar tree_5_3_u10_r1_network.node[62].content_store 	p_hit[62] 	0.22774708410068
scalar tree_5_3_u10_r1_network.node[62].content_store 	hits[62] 	2968
scalar tree_5_3_u10_r1_network.node[62].content_store 	misses[62] 	10064
scalar tree_5_3_u10_r1_network.node[62].content_store 	decision_yes[62] 	10064
scalar tree_5_3_u10_r1_network.node[62].content_store 	decision_no[62] 	0
scalar tree_5_3_u10_r1_network.node[62].content_store 	decision_ratio[62] 	1
scalar tree_5_3_u10_r1_network.node[63].core_layer 	interests[63] 	13769
scalar tree_5_3_u10_r1_network.node[63].core_layer 	data[63] 	10031
scalar tree_5_3_u10_r1_network.node[63].content_store 	p_hit[63] 	0.27147941026945
scalar tree_5_3_u10_r1_network.node[63].content_store 	hits[63] 	3738
scalar tree_5_3_u10_r1_network.node[63].content_store 	misses[63] 	10031
scalar tree_5_3_u10_r1_network.node[63].content_store 	decision_yes[63] 	10031
scalar tree_5_3_u10_r1_network.node[63].content_store 	decision_no[63] 	0
scalar tree_5_3_u10_r1_network.node[63].content_store 	decision_ratio[63] 	1
scalar tree_5_3_u10_r1_network.node[64].core_layer 	interests[64] 	13922
scalar tree_5_3_u10_r1_network.node[64].core_layer 	data[64] 	10123
scalar tree_5_3_u10_r1_network.node[64].content_store 	p_hit[64] 	0.27287746013504
scalar tree_5_3_u10_r1_network.node[64].content_store 	hits[64] 	3799
scalar tree_5_3_u10_r1_network.node[64].content_store 	misses[64] 	10123
scalar tree_5_3_u10_r1_network.node[64].content_store 	decision_yes[64] 	10123
scalar tree_5_3_u10_r1_network.node[64].content_store 	decision_no[64] 	0
scalar tree_5_3_u10_r1_network.node[64].content_store 	decision_ratio[64] 	1
scalar tree_5_3_u10_r1_network.node[65].core_layer 	interests[65] 	13697
scalar tree_5_3_u10_r1_network.node[65].core_layer 	data[65] 	10006
scalar tree_5_3_u10_r1_network.node[65].content_store 	p_hit[65] 	0.26947506753304
scalar tree_5_3_u10_r1_network.node[65].content_store 	hits[65] 	3691
scalar tree_5_3_u10_r1_network.node[65].content_store 	misses[65] 	10006
scalar tree_5_3_u10_r1_network.node[65].content_store 	decision_yes[65] 	10006
scalar tree_5_3_u10_r1_network.node[65].content_store 	decision_no[65] 	0
scalar tree_5_3_u10_r1_network.node[65].content_store 	decision_ratio[65] 	1
scalar tree_5_3_u10_r1_network.node[66].core_layer 	interests[66] 	12124
scalar tree_5_3_u10_r1_network.node[66].core_layer 	data[66] 	9933
scalar tree_5_3_u10_r1_network.node[66].content_store 	p_hit[66] 	0.18063345430551
scalar tree_5_3_u10_r1_network.node[66].content_store 	hits[66] 	2190
scalar tree_5_3_u10_r1_network.node[66].content_store 	misses[66] 	9934
scalar tree_5_3_u10_r1_network.node[66].content_store 	decision_yes[66] 	9933
scalar tree_5_3_u10_r1_network.node[66].content_store 	decision_no[66] 	0
scalar tree_5_3_u10_r1_network.node[66].content_store 	decision_ratio[66] 	1
scalar tree_5_3_u10_r1_network.node[67].core_layer 	interests[67] 	13103
scalar tree_5_3_u10_r1_network.node[67].core_layer 	data[67] 	10028
scalar tree_5_3_u10_r1_network.node[67].content_store 	p_hit[67] 	0.23460276272609
scalar tree_5_3_u10_r1_network.node[67].content_store 	hits[67] 	3074
scalar tree_5_3_u10_r1_network.node[67].content_store 	misses[67] 	10029
scalar tree_5_3_u10_r1_network.node[67].content_store 	decision_yes[67] 	10028
scalar tree_5_3_u10_r1_network.node[67].content_store 	decision_no[67] 	0
scalar tree_5_3_u10_r1_network.node[67].content_store 	decision_ratio[67] 	1
scalar tree_5_3_u10_r1_network.node[68].core_layer 	interests[68] 	14178
scalar tree_5_3_u10_r1_network.node[68].core_layer 	data[68] 	10092
scalar tree_5_3_u10_r1_network.node[68].content_store 	p_hit[68] 	0.28812244322189
scalar tree_5_3_u10_r1_network.node[68].content_store 	hits[68] 	4085
scalar tree_5_3_u10_r1_network.node[68].content_store 	misses[68] 	10093
scalar tree_5_3_u10_r1_network.node[68].content_store 	decision_yes[68] 	10092
scalar tree_5_3_u10_r1_network.node[68].content_store 	decision_no[68] 	0
scalar tree_5_3_u10_r1_network.node[68].content_store 	decision_ratio[68] 	1
scalar tree_5_3_u10_r1_network.node[69].core_layer 	interests[69] 	13956
scalar tree_5_3_u10_r1_network.node[69].core_layer 	data[69] 	10120
scalar tree_5_3_u10_r1_network.node[69].content_store 	p_hit[69] 	0.27486385783892
scalar tree_5_3_u10_r1_network.node[69].content_store 	hits[69] 	3836
scalar tree_5_3_u10_r1_network.node[69].content_store 	misses[69] 	10120
scalar tree_5_3_u10_r1_network.node[69].content_store 	decision_yes[69] 	10120
scalar tree_5_3_u10_r1_network.node[69].content_store 	decision_no[69] 	0
scalar tree_5_3_u10_r1_network.node[69].content_store 	decision_ratio[69] 	1
scalar tree_5_3_u10_r1_network.node[70].core_layer 	interests[70] 	14253
scalar tree_5_3_u10_r1_network.node[70].core_layer 	data[70] 	10191
scalar tree_5_3_u10_r1_network.node[70].content_store 	p_hit[70] 	0.28492247246194
scalar tree_5_3_u10_r1_network.node[70].content_store 	hits[70] 	4061
scalar tree_5_3_u10_r1_network.node[70].content_store 	misses[70] 	10192
scalar tree_5_3_u10_r1_network.node[70].content_store 	decision_yes[70] 	10191
scalar tree_5_3_u10_r1_network.node[70].content_store 	decision_no[70] 	0
scalar tree_5_3_u10_r1_network.node[70].content_store 	decision_ratio[70] 	1
scalar tree_5_3_u10_r1_network.node[71].core_layer 	interests[71] 	12999
scalar tree_5_3_u10_r1_network.node[71].core_layer 	data[71] 	10001
scalar tree_5_3_u10_r1_network.node[71].content_store 	p_hit[71] 	0.23063312562505
scalar tree_5_3_u10_r1_network.node[71].content_store 	hits[71] 	2998
scalar tree_5_3_u10_r1_network.node[71].content_store 	misses[71] 	10001
scalar tree_5_3_u10_r1_network.node[71].content_store 	decision_yes[71] 	10001
scalar tree_5_3_u10_r1_network.node[71].content_store 	decision_no[71] 	0
scalar tree_5_3_u10_r1_network.node[71].content_store 	decision_ratio[71] 	1
scalar tree_5_3_u10_r1_network.node[72].core_layer 	interests[72] 	14080
scalar tree_5_3_u10_r1_network.node[72].core_layer 	data[72] 	10236
scalar tree_5_3_u10_r1_network.node[72].content_store 	p_hit[72] 	0.27286931818182
scalar tree_5_3_u10_r1_network.node[72].content_store 	hits[72] 	3842
scalar tree_5_3_u10_r1_network.node[72].content_store 	misses[72] 	10238
scalar tree_5_3_u10_r1_network.node[72].content_store 	decision_yes[72] 	10236
scalar tree_5_3_u10_r1_network.node[72].content_store 	decision_no[72] 	0
scalar tree_5_3_u10_r1_network.node[72].content_store 	decision_ratio[72] 	1
scalar tree_5_3_u10_r1_network.node[73].core_layer 	interests[73] 	13942
scalar tree_5_3_u10_r1_network.node[73].core_layer 	data[73] 	10057
scalar tree_5_3_u10_r1_network.node[73].content_store 	p_hit[73] 	0.27865442547698
scalar tree_5_3_u10_r1_network.node[73].content_store 	hits[73] 	3885
scalar tree_5_3_u10_r1_network.node[73].content_store 	misses[73] 	10057
scalar tree_5_3_u10_r1_network.node[73].content_store 	decision_yes[73] 	10057
scalar tree_5_3_u10_r1_network.node[73].content_store 	decision_no[73] 	0
scalar tree_5_3_u10_r1_network.node[73].content_store 	decision_ratio[73] 	1
scalar tree_5_3_u10_r1_network.node[74].core_layer 	interests[74] 	13762
scalar tree_5_3_u10_r1_network.node[74].core_layer 	data[74] 	9859
scalar tree_5_3_u10_r1_network.node[74].content_store 	p_hit[74] 	0.28353437000436
scalar tree_5_3_u10_r1_network.node[74].content_store 	hits[74] 	3902
scalar tree_5_3_u10_r1_network.node[74].content_store 	misses[74] 	9860
scalar tree_5_3_u10_r1_network.node[74].content_store 	decision_yes[74] 	9859
scalar tree_5_3_u10_r1_network.node[74].content_store 	decision_no[74] 	0
scalar tree_5_3_u10_r1_network.node[74].content_store 	decision_ratio[74] 	1
scalar tree_5_3_u10_r1_network.node[75].core_layer 	interests[75] 	12686
scalar tree_5_3_u10_r1_network.node[75].core_layer 	data[75] 	10215
scalar tree_5_3_u10_r1_network.node[75].content_store 	p_hit[75] 	0.19478164906196
scalar tree_5_3_u10_r1_network.node[75].content_store 	hits[75] 	2471
scalar tree_5_3_u10_r1_network.node[75].content_store 	misses[75] 	10215
scalar tree_5_3_u10_r1_network.node[75].content_store 	decision_yes[75] 	10215
scalar tree_5_3_u10_r1_network.node[75].content_store 	decision_no[75] 	0
scalar tree_5_3_u10_r1_network.node[75].content_store 	decision_ratio[75] 	1
scalar tree_5_3_u10_r1_network.node[76].core_layer 	interests[76] 	13258
scalar tree_5_3_u10_r1_network.node[76].core_layer 	data[76] 	10005
scalar tree_5_3_u10_r1_network.node[76].content_store 	p_hit[76] 	0.24528586513803
scalar tree_5_3_u10_r1_network.node[76].content_store 	hits[76] 	3252
scalar tree_5_3_u10_r1_network.node[76].content_store 	misses[76] 	10006
scalar tree_5_3_u10_r1_network.node[76].content_store 	decision_yes[76] 	10005
scalar tree_5_3_u10_r1_network.node[76].content_store 	decision_no[76] 	0
scalar tree_5_3_u10_r1_network.node[76].content_store 	decision_ratio[76] 	1
scalar tree_5_3_u10_r1_network.node[77].core_layer 	interests[77] 	14081
scalar tree_5_3_u10_r1_network.node[77].core_layer 	data[77] 	9987
scalar tree_5_3_u10_r1_network.node[77].content_store 	p_hit[77] 	0.29074639585257
scalar tree_5_3_u10_r1_network.node[77].content_store 	hits[77] 	4094
scalar tree_5_3_u10_r1_network.node[77].content_store 	misses[77] 	9987
scalar tree_5_3_u10_r1_network.node[77].content_store 	decision_yes[77] 	9987
scalar tree_5_3_u10_r1_network.node[77].content_store 	decision_no[77] 	0
scalar tree_5_3_u10_r1_network.node[77].content_store 	decision_ratio[77] 	1
scalar tree_5_3_u10_r1_network.node[78].core_layer 	interests[78] 	14063
scalar tree_5_3_u10_r1_network.node[78].core_layer 	data[78] 	10032
scalar tree_5_3_u10_r1_network.node[78].content_store 	p_hit[78] 	0.28656758870796
scalar tree_5_3_u10_r1_network.node[78].content_store 	hits[78] 	4030
scalar tree_5_3_u10_r1_network.node[78].content_store 	misses[78] 	10033
scalar tree_5_3_u10_r1_network.node[78].content_store 	decision_yes[78] 	10032
scalar tree_5_3_u10_r1_network.node[78].content_store 	decision_no[78] 	0
scalar tree_5_3_u10_r1_network.node[78].content_store 	decision_ratio[78] 	1
scalar tree_5_3_u10_r1_network.node[79].core_layer 	interests[79] 	13892
scalar tree_5_3_u10_r1_network.node[79].core_layer 	data[79] 	9911
scalar tree_5_3_u10_r1_network.node[79].content_store 	p_hit[79] 	0.28649582493521
scalar tree_5_3_u10_r1_network.node[79].content_store 	hits[79] 	3980
scalar tree_5_3_u10_r1_network.node[79].content_store 	misses[79] 	9912
scalar tree_5_3_u10_r1_network.node[79].content_store 	decision_yes[79] 	9911
scalar tree_5_3_u10_r1_network.node[79].content_store 	decision_no[79] 	0
scalar tree_5_3_u10_r1_network.node[79].content_store 	decision_ratio[79] 	1
scalar tree_5_3_u10_r1_network.node[80].core_layer 	interests[80] 	12863
scalar tree_5_3_u10_r1_network.node[80].core_layer 	data[80] 	10055
scalar tree_5_3_u10_r1_network.node[80].content_store 	p_hit[80] 	0.21822280960896
scalar tree_5_3_u10_r1_network.node[80].content_store 	hits[80] 	2807
scalar tree_5_3_u10_r1_network.node[80].content_store 	misses[80] 	10056
scalar tree_5_3_u10_r1_network.node[80].content_store 	decision_yes[80] 	10055
scalar tree_5_3_u10_r1_network.node[80].content_store 	decision_no[80] 	0
scalar tree_5_3_u10_r1_network.node[80].content_store 	decision_ratio[80] 	1
scalar tree_5_3_u10_r1_network.node[81].core_layer 	interests[81] 	13638
scalar tree_5_3_u10_r1_network.node[81].core_layer 	data[81] 	10017
scalar tree_5_3_u10_r1_network.node[81].content_store 	p_hit[81] 	0.26550813902332
scalar tree_5_3_u10_r1_network.node[81].content_store 	hits[81] 	3621
scalar tree_5_3_u10_r1_network.node[81].content_store 	misses[81] 	10017
scalar tree_5_3_u10_r1_network.node[81].content_store 	decision_yes[81] 	10017
scalar tree_5_3_u10_r1_network.node[81].content_store 	decision_no[81] 	0
scalar tree_5_3_u10_r1_network.node[81].content_store 	decision_ratio[81] 	1
scalar tree_5_3_u10_r1_network.node[82].core_layer 	interests[82] 	14167
scalar tree_5_3_u10_r1_network.node[82].core_layer 	data[82] 	10155
scalar tree_5_3_u10_r1_network.node[82].content_store 	p_hit[82] 	0.28312275005294
scalar tree_5_3_u10_r1_network.node[82].content_store 	hits[82] 	4011
scalar tree_5_3_u10_r1_network.node[82].content_store 	misses[82] 	10156
scalar tree_5_3_u10_r1_network.node[82].content_store 	decision_yes[82] 	10155
scalar tree_5_3_u10_r1_network.node[82].content_store 	decision_no[82] 	0
scalar tree_5_3_u10_r1_network.node[82].content_store 	decision_ratio[82] 	1
scalar tree_5_3_u10_r1_network.node[83].core_layer 	interests[83] 	13686
scalar tree_5_3_u10_r1_network.node[83].core_layer 	data[83] 	10098
scalar tree_5_3_u10_r1_network.node[83].content_store 	p_hit[83] 	0.26201958205465
scalar tree_5_3_u10_r1_network.node[83].content_store 	hits[83] 	3586
scalar tree_5_3_u10_r1_network.node[83].content_store 	misses[83] 	10100
scalar tree_5_3_u10_r1_network.node[83].content_store 	decision_yes[83] 	10098
scalar tree_5_3_u10_r1_network.node[83].content_store 	decision_no[83] 	0
scalar tree_5_3_u10_r1_network.node[83].content_store 	decision_ratio[83] 	1
scalar tree_5_3_u10_r1_network.node[84].core_layer 	interests[84] 	12595
scalar tree_5_3_u10_r1_network.node[84].core_layer 	data[84] 	10116
scalar tree_5_3_u10_r1_network.node[84].content_store 	p_hit[84] 	0.19674473997618
scalar tree_5_3_u10_r1_network.node[84].content_store 	hits[84] 	2478
scalar tree_5_3_u10_r1_network.node[84].content_store 	misses[84] 	10117
scalar tree_5_3_u10_r1_network.node[84].content_store 	decision_yes[84] 	10116
scalar tree_5_3_u10_r1_network.node[84].content_store 	decision_no[84] 	0
scalar tree_5_3_u10_r1_network.node[84].content_store 	decision_ratio[84] 	1
scalar tree_5_3_u10_r1_network.node[85].core_layer 	interests[85] 	13412
scalar tree_5_3_u10_r1_network.node[85].core_layer 	data[85] 	10238
scalar tree_5_3_u10_r1_network.node[85].content_store 	p_hit[85] 	0.23650462272592
scalar tree_5_3_u10_r1_network.node[85].content_store 	hits[85] 	3172
scalar tree_5_3_u10_r1_network.node[85].content_store 	misses[85] 	10240
scalar tree_5_3_u10_r1_network.node[85].content_store 	decision_yes[85] 	10238
scalar tree_5_3_u10_r1_network.node[85].content_store 	decision_no[85] 	0
scalar tree_5_3_u10_r1_network.node[85].content_store 	decision_ratio[85] 	1
scalar tree_5_3_u10_r1_network.node[86].core_layer 	interests[86] 	14064
scalar tree_5_3_u10_r1_network.node[86].core_layer 	data[86] 	10157
scalar tree_5_3_u10_r1_network.node[86].content_store 	p_hit[86] 	0.27780147895336
scalar tree_5_3_u10_r1_network.node[86].content_store 	hits[86] 	3907
scalar tree_5_3_u10_r1_network.node[86].content_store 	misses[86] 	10157
scalar tree_5_3_u10_r1_network.node[86].content_store 	decision_yes[86] 	10157
scalar tree_5_3_u10_r1_network.node[86].content_store 	decision_no[86] 	0
scalar tree_5_3_u10_r1_network.node[86].content_store 	decision_ratio[86] 	1
scalar tree_5_3_u10_r1_network.node[87].core_layer 	interests[87] 	13991
scalar tree_5_3_u10_r1_network.node[87].core_layer 	data[87] 	10147
scalar tree_5_3_u10_r1_network.node[87].content_store 	p_hit[87] 	0.27474805231935
scalar tree_5_3_u10_r1_network.node[87].content_store 	hits[87] 	3844
scalar tree_5_3_u10_r1_network.node[87].content_store 	misses[87] 	10147
scalar tree_5_3_u10_r1_network.node[87].content_store 	decision_yes[87] 	10147
scalar tree_5_3_u10_r1_network.node[87].content_store 	decision_no[87] 	0
scalar tree_5_3_u10_r1_network.node[87].content_store 	decision_ratio[87] 	1
scalar tree_5_3_u10_r1_network.node[88].core_layer 	interests[88] 	14234
scalar tree_5_3_u10_r1_network.node[88].core_layer 	data[88] 	10098
scalar tree_5_3_u10_r1_network.node[88].content_store 	p_hit[88] 	0.29057187017002
scalar tree_5_3_u10_r1_network.node[88].content_store 	hits[88] 	4136
scalar tree_5_3_u10_r1_network.node[88].content_store 	misses[88] 	10098
scalar tree_5_3_u10_r1_network.node[88].content_store 	decision_yes[88] 	10098
scalar tree_5_3_u10_r1_network.node[88].content_store 	decision_no[88] 	0
scalar tree_5_3_u10_r1_network.node[88].content_store 	decision_ratio[88] 	1
scalar tree_5_3_u10_r1_network.node[89].core_layer 	interests[89] 	13164
scalar tree_5_3_u10_r1_network.node[89].core_layer 	data[89] 	10112
scalar tree_5_3_u10_r1_network.node[89].content_store 	p_hit[89] 	0.23176845943482
scalar tree_5_3_u10_r1_network.node[89].content_store 	hits[89] 	3051
scalar tree_5_3_u10_r1_network.node[89].content_store 	misses[89] 	10113
scalar tree_5_3_u10_r1_network.node[89].content_store 	decision_yes[89] 	10112
scalar tree_5_3_u10_r1_network.node[89].content_store 	decision_no[89] 	0
scalar tree_5_3_u10_r1_network.node[89].content_store 	decision_ratio[89] 	1
scalar tree_5_3_u10_r1_network.node[90].core_layer 	interests[90] 	13738
scalar tree_5_3_u10_r1_network.node[90].core_layer 	data[90] 	10082
scalar tree_5_3_u10_r1_network.node[90].content_store 	p_hit[90] 	0.26597758043383
scalar tree_5_3_u10_r1_network.node[90].content_store 	hits[90] 	3654
scalar tree_5_3_u10_r1_network.node[90].content_store 	misses[90] 	10084
scalar tree_5_3_u10_r1_network.node[90].content_store 	decision_yes[90] 	10082
scalar tree_5_3_u10_r1_network.node[90].content_store 	decision_no[90] 	0
scalar tree_5_3_u10_r1_network.node[90].content_store 	decision_ratio[90] 	1
scalar tree_5_3_u10_r1_network.node[91].core_layer 	interests[91] 	14054
scalar tree_5_3_u10_r1_network.node[91].core_layer 	data[91] 	10070
scalar tree_5_3_u10_r1_network.node[91].content_store 	p_hit[91] 	0.28340685925715
scalar tree_5_3_u10_r1_network.node[91].content_store 	hits[91] 	3983
scalar tree_5_3_u10_r1_network.node[91].content_store 	misses[91] 	10071
scalar tree_5_3_u10_r1_network.node[91].content_store 	decision_yes[91] 	10070
scalar tree_5_3_u10_r1_network.node[91].content_store 	decision_no[91] 	0
scalar tree_5_3_u10_r1_network.node[91].content_store 	decision_ratio[91] 	1
scalar tree_5_3_u10_r1_network.node[92].core_layer 	interests[92] 	13898
scalar tree_5_3_u10_r1_network.node[92].core_layer 	data[92] 	10246
scalar tree_5_3_u10_r1_network.node[92].content_store 	p_hit[92] 	0.26269966901712
scalar tree_5_3_u10_r1_network.node[92].content_store 	hits[92] 	3651
scalar tree_5_3_u10_r1_network.node[92].content_store 	misses[92] 	10247
scalar tree_5_3_u10_r1_network.node[92].content_store 	decision_yes[92] 	10246
scalar tree_5_3_u10_r1_network.node[92].content_store 	decision_no[92] 	0
scalar tree_5_3_u10_r1_network.node[92].content_store 	decision_ratio[92] 	1
scalar tree_5_3_u10_r1_network.node[93].core_layer 	interests[93] 	12320
scalar tree_5_3_u10_r1_network.node[93].core_layer 	data[93] 	10121
scalar tree_5_3_u10_r1_network.node[93].content_store 	p_hit[93] 	0.17840909090909
scalar tree_5_3_u10_r1_network.node[93].content_store 	hits[93] 	2198
scalar tree_5_3_u10_r1_network.node[93].content_store 	misses[93] 	10122
scalar tree_5_3_u10_r1_network.node[93].content_store 	decision_yes[93] 	10121
scalar tree_5_3_u10_r1_network.node[93].content_store 	decision_no[93] 	0
scalar tree_5_3_u10_r1_network.node[93].content_store 	decision_ratio[93] 	1
scalar tree_5_3_u10_r1_network.node[94].core_layer 	interests[94] 	12933
scalar tree_5_3_u10_r1_network.node[94].core_layer 	data[94] 	9952
scalar tree_5_3_u10_r1_network.node[94].content_store 	p_hit[94] 	0.23041830975025
scalar tree_5_3_u10_r1_network.node[94].content_store 	hits[94] 	2980
scalar tree_5_3_u10_r1_network.node[94].content_store 	misses[94] 	9953
scalar tree_5_3_u10_r1_network.node[94].content_store 	decision_yes[94] 	9952
scalar tree_5_3_u10_r1_network.node[94].content_store 	decision_no[94] 	0
scalar tree_5_3_u10_r1_network.node[94].content_store 	decision_ratio[94] 	1
scalar tree_5_3_u10_r1_network.node[95].core_layer 	interests[95] 	13998
scalar tree_5_3_u10_r1_network.node[95].core_layer 	data[95] 	9997
scalar tree_5_3_u10_r1_network.node[95].content_store 	p_hit[95] 	0.28582654664952
scalar tree_5_3_u10_r1_network.node[95].content_store 	hits[95] 	4001
scalar tree_5_3_u10_r1_network.node[95].content_store 	misses[95] 	9997
scalar tree_5_3_u10_r1_network.node[95].content_store 	decision_yes[95] 	9997
scalar tree_5_3_u10_r1_network.node[95].content_store 	decision_no[95] 	0
scalar tree_5_3_u10_r1_network.node[95].content_store 	decision_ratio[95] 	1
scalar tree_5_3_u10_r1_network.node[96].core_layer 	interests[96] 	13631
scalar tree_5_3_u10_r1_network.node[96].core_layer 	data[96] 	9765
scalar tree_5_3_u10_r1_network.node[96].content_store 	p_hit[96] 	0.28354486097865
scalar tree_5_3_u10_r1_network.node[96].content_store 	hits[96] 	3865
scalar tree_5_3_u10_r1_network.node[96].content_store 	misses[96] 	9766
scalar tree_5_3_u10_r1_network.node[96].content_store 	decision_yes[96] 	9765
scalar tree_5_3_u10_r1_network.node[96].content_store 	decision_no[96] 	0
scalar tree_5_3_u10_r1_network.node[96].content_store 	decision_ratio[96] 	1
scalar tree_5_3_u10_r1_network.node[97].core_layer 	interests[97] 	14082
scalar tree_5_3_u10_r1_network.node[97].core_layer 	data[97] 	10077
scalar tree_5_3_u10_r1_network.node[97].content_store 	p_hit[97] 	0.28433461156086
scalar tree_5_3_u10_r1_network.node[97].content_store 	hits[97] 	4004
scalar tree_5_3_u10_r1_network.node[97].content_store 	misses[97] 	10078
scalar tree_5_3_u10_r1_network.node[97].content_store 	decision_yes[97] 	10077
scalar tree_5_3_u10_r1_network.node[97].content_store 	decision_no[97] 	0
scalar tree_5_3_u10_r1_network.node[97].content_store 	decision_ratio[97] 	1
scalar tree_5_3_u10_r1_network.node[98].core_layer 	interests[98] 	13106
scalar tree_5_3_u10_r1_network.node[98].core_layer 	data[98] 	10147
scalar tree_5_3_u10_r1_network.node[98].content_store 	p_hit[98] 	0.22577445444834
scalar tree_5_3_u10_r1_network.node[98].content_store 	hits[98] 	2959
scalar tree_5_3_u10_r1_network.node[98].content_store 	misses[98] 	10147
scalar tree_5_3_u10_r1_network.node[98].content_store 	decision_yes[98] 	10147
scalar tree_5_3_u10_r1_network.node[98].content_store 	decision_no[98] 	0
scalar tree_5_3_u10_r1_network.node[98].content_store 	decision_ratio[98] 	1
scalar tree_5_3_u10_r1_network.node[99].core_layer 	interests[99] 	13798
scalar tree_5_3_u10_r1_network.node[99].core_layer 	data[99] 	10009
scalar tree_5_3_u10_r1_network.node[99].content_store 	p_hit[99] 	0.27446006667633
scalar tree_5_3_u10_r1_network.node[99].content_store 	hits[99] 	3787
scalar tree_5_3_u10_r1_network.node[99].content_store 	misses[99] 	10011
scalar tree_5_3_u10_r1_network.node[99].content_store 	decision_yes[99] 	10009
scalar tree_5_3_u10_r1_network.node[99].content_store 	decision_no[99] 	0
scalar tree_5_3_u10_r1_network.node[99].content_store 	decision_ratio[99] 	1
scalar tree_5_3_u10_r1_network.node[100].core_layer 	interests[100] 	13867
scalar tree_5_3_u10_r1_network.node[100].core_layer 	data[100] 	9959
scalar tree_5_3_u10_r1_network.node[100].content_store 	p_hit[100] 	0.28174803490301
scalar tree_5_3_u10_r1_network.node[100].content_store 	hits[100] 	3907
scalar tree_5_3_u10_r1_network.node[100].content_store 	misses[100] 	9960
scalar tree_5_3_u10_r1_network.node[100].content_store 	decision_yes[100] 	9959
scalar tree_5_3_u10_r1_network.node[100].content_store 	decision_no[100] 	0
scalar tree_5_3_u10_r1_network.node[100].content_store 	decision_ratio[100] 	1
scalar tree_5_3_u10_r1_network.node[101].core_layer 	interests[101] 	13879
scalar tree_5_3_u10_r1_network.node[101].core_layer 	data[101] 	10023
scalar tree_5_3_u10_r1_network.node[101].content_store 	p_hit[101] 	0.27782981482816
scalar tree_5_3_u10_r1_network.node[101].content_store 	hits[101] 	3856
scalar tree_5_3_u10_r1_network.node[101].content_store 	misses[101] 	10023
scalar tree_5_3_u10_r1_network.node[101].content_store 	decision_yes[101] 	10023
scalar tree_5_3_u10_r1_network.node[101].content_store 	decision_no[101] 	0
scalar tree_5_3_u10_r1_network.node[101].content_store 	decision_ratio[101] 	1
scalar tree_5_3_u10_r1_network.node[102].core_layer 	interests[102] 	12703
scalar tree_5_3_u10_r1_network.node[102].core_layer 	data[102] 	10298
scalar tree_5_3_u10_r1_network.node[102].content_store 	p_hit[102] 	0.18932535621507
scalar tree_5_3_u10_r1_network.node[102].content_store 	hits[102] 	2405
scalar tree_5_3_u10_r1_network.node[102].content_store 	misses[102] 	10298
scalar tree_5_3_u10_r1_network.node[102].content_store 	decision_yes[102] 	10298
scalar tree_5_3_u10_r1_network.node[102].content_store 	decision_no[102] 	0
scalar tree_5_3_u10_r1_network.node[102].content_store 	decision_ratio[102] 	1
scalar tree_5_3_u10_r1_network.node[103].core_layer 	interests[103] 	13235
scalar tree_5_3_u10_r1_network.node[103].core_layer 	data[103] 	10090
scalar tree_5_3_u10_r1_network.node[103].content_store 	p_hit[103] 	0.23755194559879
scalar tree_5_3_u10_r1_network.node[103].content_store 	hits[103] 	3144
scalar tree_5_3_u10_r1_network.node[103].content_store 	misses[103] 	10091
scalar tree_5_3_u10_r1_network.node[103].content_store 	decision_yes[103] 	10090
scalar tree_5_3_u10_r1_network.node[103].content_store 	decision_no[103] 	0
scalar tree_5_3_u10_r1_network.node[103].content_store 	decision_ratio[103] 	1
scalar tree_5_3_u10_r1_network.node[104].core_layer 	interests[104] 	13958
scalar tree_5_3_u10_r1_network.node[104].core_layer 	data[104] 	10098
scalar tree_5_3_u10_r1_network.node[104].content_store 	p_hit[104] 	0.27640063046282
scalar tree_5_3_u10_r1_network.node[104].content_store 	hits[104] 	3858
scalar tree_5_3_u10_r1_network.node[104].content_store 	misses[104] 	10100
scalar tree_5_3_u10_r1_network.node[104].content_store 	decision_yes[104] 	10098
scalar tree_5_3_u10_r1_network.node[104].content_store 	decision_no[104] 	0
scalar tree_5_3_u10_r1_network.node[104].content_store 	decision_ratio[104] 	1
scalar tree_5_3_u10_r1_network.node[105].core_layer 	interests[105] 	13863
scalar tree_5_3_u10_r1_network.node[105].core_layer 	data[105] 	9922
scalar tree_5_3_u10_r1_network.node[105].content_store 	p_hit[105] 	0.28428190146433
scalar tree_5_3_u10_r1_network.node[105].content_store 	hits[105] 	3941
scalar tree_5_3_u10_r1_network.node[105].content_store 	misses[105] 	9922
scalar tree_5_3_u10_r1_network.node[105].content_store 	decision_yes[105] 	9922
scalar tree_5_3_u10_r1_network.node[105].content_store 	decision_no[105] 	0
scalar tree_5_3_u10_r1_network.node[105].content_store 	decision_ratio[105] 	1
scalar tree_5_3_u10_r1_network.node[106].core_layer 	interests[106] 	13986
scalar tree_5_3_u10_r1_network.node[106].core_layer 	data[106] 	9973
scalar tree_5_3_u10_r1_network.node[106].content_store 	p_hit[106] 	0.28692978692979
scalar tree_5_3_u10_r1_network.node[106].content_store 	hits[106] 	4013
scalar tree_5_3_u10_r1_network.node[106].content_store 	misses[106] 	9973
scalar tree_5_3_u10_r1_network.node[106].content_store 	decision_yes[106] 	9973
scalar tree_5_3_u10_r1_network.node[106].content_store 	decision_no[106] 	0
scalar tree_5_3_u10_r1_network.node[106].content_store 	decision_ratio[106] 	1
scalar tree_5_3_u10_r1_network.node[107].core_layer 	interests[107] 	12817
scalar tree_5_3_u10_r1_network.node[107].core_layer 	data[107] 	10200
scalar tree_5_3_u10_r1_network.node[107].content_store 	p_hit[107] 	0.20418194585316
scalar tree_5_3_u10_r1_network.node[107].content_store 	hits[107] 	2617
scalar tree_5_3_u10_r1_network.node[107].content_store 	misses[107] 	10200
scalar tree_5_3_u10_r1_network.node[107].content_store 	decision_yes[107] 	10200
scalar tree_5_3_u10_r1_network.node[107].content_store 	decision_no[107] 	0
scalar tree_5_3_u10_r1_network.node[107].content_store 	decision_ratio[107] 	1
scalar tree_5_3_u10_r1_network.node[108].core_layer 	interests[108] 	13616
scalar tree_5_3_u10_r1_network.node[108].core_layer 	data[108] 	9990
scalar tree_5_3_u10_r1_network.node[108].content_store 	p_hit[108] 	0.26630434782609
scalar tree_5_3_u10_r1_network.node[108].content_store 	hits[108] 	3626
scalar tree_5_3_u10_r1_network.node[108].content_store 	misses[108] 	9990
scalar tree_5_3_u10_r1_network.node[108].content_store 	decision_yes[108] 	9990
scalar tree_5_3_u10_r1_network.node[108].content_store 	decision_no[108] 	0
scalar tree_5_3_u10_r1_network.node[108].content_store 	decision_ratio[108] 	1
scalar tree_5_3_u10_r1_network.node[109].core_layer 	interests[109] 	14151
scalar tree_5_3_u10_r1_network.node[109].core_layer 	data[109] 	10092
scalar tree_5_3_u10_r1_network.node[109].content_store 	p_hit[109] 	0.28669351989259
scalar tree_5_3_u10_r1_network.node[109].content_store 	hits[109] 	4057
scalar tree_5_3_u10_r1_network.node[109].content_store 	misses[109] 	10094
scalar tree_5_3_u10_r1_network.node[109].content_store 	decision_yes[109] 	10092
scalar tree_5_3_u10_r1_network.node[109].content_store 	decision_no[109] 	0
scalar tree_5_3_u10_r1_network.node[109].content_store 	decision_ratio[109] 	1
scalar tree_5_3_u10_r1_network.node[110].core_layer 	interests[110] 	13794
scalar tree_5_3_u10_r1_network.node[110].core_layer 	data[110] 	10110
scalar tree_5_3_u10_r1_network.node[110].content_store 	p_hit[110] 	0.26707264027838
scalar tree_5_3_u10_r1_network.node[110].content_store 	hits[110] 	3684
scalar tree_5_3_u10_r1_network.node[110].content_store 	misses[110] 	10110
scalar tree_5_3_u10_r1_network.node[110].content_store 	decision_yes[110] 	10110
scalar tree_5_3_u10_r1_network.node[110].content_store 	decision_no[110] 	0
scalar tree_5_3_u10_r1_network.node[110].content_store 	decision_ratio[110] 	1
scalar tree_5_3_u10_r1_network.node[111].core_layer 	interests[111] 	12601
scalar tree_5_3_u10_r1_network.node[111].core_layer 	data[111] 	10176
scalar tree_5_3_u10_r1_network.node[111].content_store 	p_hit[111] 	0.19244504404412
scalar tree_5_3_u10_r1_network.node[111].content_store 	hits[111] 	2425
scalar tree_5_3_u10_r1_network.node[111].content_store 	misses[111] 	10176
scalar tree_5_3_u10_r1_network.node[111].content_store 	decision_yes[111] 	10176
scalar tree_5_3_u10_r1_network.node[111].content_store 	decision_no[111] 	0
scalar tree_5_3_u10_r1_network.node[111].content_store 	decision_ratio[111] 	1
scalar tree_5_3_u10_r1_network.node[112].core_layer 	interests[112] 	13084
scalar tree_5_3_u10_r1_network.node[112].core_layer 	data[112] 	10081
scalar tree_5_3_u10_r1_network.node[112].content_store 	p_hit[112] 	0.22951696728829
scalar tree_5_3_u10_r1_network.node[112].content_store 	hits[112] 	3003
scalar tree_5_3_u10_r1_network.node[112].content_store 	misses[112] 	10081
scalar tree_5_3_u10_r1_network.node[112].content_store 	decision_yes[112] 	10081
scalar tree_5_3_u10_r1_network.node[112].content_store 	decision_no[112] 	0
scalar tree_5_3_u10_r1_network.node[112].content_store 	decision_ratio[112] 	1
scalar tree_5_3_u10_r1_network.node[113].core_layer 	interests[113] 	13957
scalar tree_5_3_u10_r1_network.node[113].core_layer 	data[113] 	9870
scalar tree_5_3_u10_r1_network.node[113].content_store 	p_hit[113] 	0.29282797162714
scalar tree_5_3_u10_r1_network.node[113].content_store 	hits[113] 	4087
scalar tree_5_3_u10_r1_network.node[113].content_store 	misses[113] 	9870
scalar tree_5_3_u10_r1_network.node[113].content_store 	decision_yes[113] 	9870
scalar tree_5_3_u10_r1_network.node[113].content_store 	decision_no[113] 	0
scalar tree_5_3_u10_r1_network.node[113].content_store 	decision_ratio[113] 	1
scalar tree_5_3_u10_r1_network.node[114].core_layer 	interests[114] 	13785
scalar tree_5_3_u10_r1_network.node[114].core_layer 	data[114] 	10079
scalar tree_5_3_u10_r1_network.node[114].content_store 	p_hit[114] 	0.26884294523032
scalar tree_5_3_u10_r1_network.node[114].content_store 	hits[114] 	3706
scalar tree_5_3_u10_r1_network.node[114].content_store 	misses[114] 	10079
scalar tree_5_3_u10_r1_network.node[114].content_store 	decision_yes[114] 	10079
scalar tree_5_3_u10_r1_network.node[114].content_store 	decision_no[114] 	0
scalar tree_5_3_u10_r1_network.node[114].content_store 	decision_ratio[114] 	1
scalar tree_5_3_u10_r1_network.node[115].core_layer 	interests[115] 	14084
scalar tree_5_3_u10_r1_network.node[115].core_layer 	data[115] 	10015
scalar tree_5_3_u10_r1_network.node[115].content_store 	p_hit[115] 	0.28869639307015
scalar tree_5_3_u10_r1_network.node[115].content_store 	hits[115] 	4066
scalar tree_5_3_u10_r1_network.node[115].content_store 	misses[115] 	10018
scalar tree_5_3_u10_r1_network.node[115].content_store 	decision_yes[115] 	10015
scalar tree_5_3_u10_r1_network.node[115].content_store 	decision_no[115] 	0
scalar tree_5_3_u10_r1_network.node[115].content_store 	decision_ratio[115] 	1
scalar tree_5_3_u10_r1_network.node[116].core_layer 	interests[116] 	12997
scalar tree_5_3_u10_r1_network.node[116].core_layer 	data[116] 	10110
scalar tree_5_3_u10_r1_network.node[116].content_store 	p_hit[116] 	0.22220512425944
scalar tree_5_3_u10_r1_network.node[116].content_store 	hits[116] 	2888
scalar tree_5_3_u10_r1_network.node[116].content_store 	misses[116] 	10109
scalar tree_5_3_u10_r1_network.node[116].content_store 	decision_yes[116] 	10110
scalar tree_5_3_u10_r1_network.node[116].content_store 	decision_no[116] 	0
scalar tree_5_3_u10_r1_network.node[116].content_store 	decision_ratio[116] 	1
scalar tree_5_3_u10_r1_network.node[117].core_layer 	interests[117] 	13806
scalar tree_5_3_u10_r1_network.node[117].core_layer 	data[117] 	10166
scalar tree_5_3_u10_r1_network.node[117].content_store 	p_hit[117] 	0.26350861944082
scalar tree_5_3_u10_r1_network.node[117].content_store 	hits[117] 	3638
scalar tree_5_3_u10_r1_network.node[117].content_store 	misses[117] 	10168
scalar tree_5_3_u10_r1_network.node[117].content_store 	decision_yes[117] 	10166
scalar tree_5_3_u10_r1_network.node[117].content_store 	decision_no[117] 	0
scalar tree_5_3_u10_r1_network.node[117].content_store 	decision_ratio[117] 	1
scalar tree_5_3_u10_r1_network.node[118].core_layer 	interests[118] 	13655
scalar tree_5_3_u10_r1_network.node[118].core_layer 	data[118] 	9942
scalar tree_5_3_u10_r1_network.node[118].content_store 	p_hit[118] 	0.27184181618455
scalar tree_5_3_u10_r1_network.node[118].content_store 	hits[118] 	3712
scalar tree_5_3_u10_r1_network.node[118].content_store 	misses[118] 	9943
scalar tree_5_3_u10_r1_network.node[118].content_store 	decision_yes[118] 	9942
scalar tree_5_3_u10_r1_network.node[118].content_store 	decision_no[118] 	0
scalar tree_5_3_u10_r1_network.node[118].content_store 	decision_ratio[118] 	1
scalar tree_5_3_u10_r1_network.node[119].core_layer 	interests[119] 	13804
scalar tree_5_3_u10_r1_network.node[119].core_layer 	data[119] 	10095
scalar tree_5_3_u10_r1_network.node[119].content_store 	p_hit[119] 	0.26869023471458
scalar tree_5_3_u10_r1_network.node[119].content_store 	hits[119] 	3709
scalar tree_5_3_u10_r1_network.node[119].content_store 	misses[119] 	10095
scalar tree_5_3_u10_r1_network.node[119].content_store 	decision_yes[119] 	10095
scalar tree_5_3_u10_r1_network.node[119].content_store 	decision_no[119] 	0
scalar tree_5_3_u10_r1_network.node[119].content_store 	decision_ratio[119] 	1
scalar tree_5_3_u10_r1_network.node[120].core_layer 	interests[120] 	12200
scalar tree_5_3_u10_r1_network.node[120].core_layer 	data[120] 	10055
scalar tree_5_3_u10_r1_network.node[120].content_store 	p_hit[120] 	0.17581967213115
scalar tree_5_3_u10_r1_network.node[120].content_store 	hits[120] 	2145
scalar tree_5_3_u10_r1_network.node[120].content_store 	misses[120] 	10055
scalar tree_5_3_u10_r1_network.node[120].content_store 	decision_yes[120] 	10055
scalar tree_5_3_u10_r1_network.node[120].content_store 	decision_no[120] 	0
scalar tree_5_3_u10_r1_network.node[120].content_store 	decision_ratio[120] 	1
scalar tree_5_3_u10_r1_network.client[40] 	hdistance[40] 	3.6777833084453
scalar tree_5_3_u10_r1_network.client[40] 	downloads[40] 	12054
scalar tree_5_3_u10_r1_network.client[40] 	avg_time[40] 	0.006226643754
scalar tree_5_3_u10_r1_network.client[41] 	hdistance[41] 	3.5091504365346
scalar tree_5_3_u10_r1_network.client[41] 	downloads[41] 	11912
scalar tree_5_3_u10_r1_network.client[41] 	avg_time[41] 	0.005929281877
scalar tree_5_3_u10_r1_network.client[42] 	hdistance[42] 	3.5026005118468
scalar tree_5_3_u10_r1_network.client[42] 	downloads[42] 	12113
scalar tree_5_3_u10_r1_network.client[42] 	avg_time[42] 	0.005919630952
scalar tree_5_3_u10_r1_network.client[43] 	hdistance[43] 	3.5194515569505
scalar tree_5_3_u10_r1_network.client[43] 	downloads[43] 	12107
scalar tree_5_3_u10_r1_network.client[43] 	avg_time[43] 	0.005960681079
scalar tree_5_3_u10_r1_network.client[44] 	hdistance[44] 	3.6179272636898
scalar tree_5_3_u10_r1_network.client[44] 	downloads[44] 	12071
scalar tree_5_3_u10_r1_network.client[44] 	avg_time[44] 	0.006150967068
scalar tree_5_3_u10_r1_network.client[45] 	hdistance[45] 	3.4640738857821
scalar tree_5_3_u10_r1_network.client[45] 	downloads[45] 	11802
scalar tree_5_3_u10_r1_network.client[45] 	avg_time[45] 	0.005844816211
scalar tree_5_3_u10_r1_network.client[46] 	hdistance[46] 	3.49666999667
scalar tree_5_3_u10_r1_network.client[46] 	downloads[46] 	12012
scalar tree_5_3_u10_r1_network.client[46] 	avg_time[46] 	0.00591055575
scalar tree_5_3_u10_r1_network.client[47] 	hdistance[47] 	3.4655463604121
scalar tree_5_3_u10_r1_network.client[47] 	downloads[47] 	11842
scalar tree_5_3_u10_r1_network.client[47] 	avg_time[47] 	0.005853946779
scalar tree_5_3_u10_r1_network.client[48] 	hdistance[48] 	3.5457364341085
scalar tree_5_3_u10_r1_network.client[48] 	downloads[48] 	12255
scalar tree_5_3_u10_r1_network.client[48] 	avg_time[48] 	0.006016515298
scalar tree_5_3_u10_r1_network.client[49] 	hdistance[49] 	3.5933505972768
scalar tree_5_3_u10_r1_network.client[49] 	downloads[49] 	11971
scalar tree_5_3_u10_r1_network.client[49] 	avg_time[49] 	0.006100907547
scalar tree_5_3_u10_r1_network.client[50] 	hdistance[50] 	3.5630365258374
scalar tree_5_3_u10_r1_network.client[50] 	downloads[50] 	11882
scalar tree_5_3_u10_r1_network.client[50] 	avg_time[50] 	0.006020898353
scalar tree_5_3_u10_r1_network.client[51] 	hdistance[51] 	3.4721491948735
scalar tree_5_3_u10_r1_network.client[51] 	downloads[51] 	12172
scalar tree_5_3_u10_r1_network.client[51] 	avg_time[51] 	0.005863431299
scalar tree_5_3_u10_r1_network.client[52] 	hdistance[52] 	3.5172757475083
scalar tree_5_3_u10_r1_network.client[52] 	downloads[52] 	12040
scalar tree_5_3_u10_r1_network.client[52] 	avg_time[52] 	0.005953192814
scalar tree_5_3_u10_r1_network.client[53] 	hdistance[53] 	3.6973917447455
scalar tree_5_3_u10_r1_network.client[53] 	downloads[53] 	11847
scalar tree_5_3_u10_r1_network.client[53] 	avg_time[53] 	0.006271777161
scalar tree_5_3_u10_r1_network.client[54] 	hdistance[54] 	3.5048375093029
scalar tree_5_3_u10_r1_network.client[54] 	downloads[54] 	12093
scalar tree_5_3_u10_r1_network.client[54] 	avg_time[54] 	0.005917966443
scalar tree_5_3_u10_r1_network.client[55] 	hdistance[55] 	3.4707614640303
scalar tree_5_3_u10_r1_network.client[55] 	downloads[55] 	11885
scalar tree_5_3_u10_r1_network.client[55] 	avg_time[55] 	0.00584856549
scalar tree_5_3_u10_r1_network.client[56] 	hdistance[56] 	3.489096054603
scalar tree_5_3_u10_r1_network.client[56] 	downloads[56] 	12014
scalar tree_5_3_u10_r1_network.client[56] 	avg_time[56] 	0.005894952883
scalar tree_5_3_u10_r1_network.client[57] 	hdistance[57] 	3.553659145783
scalar tree_5_3_u10_r1_network.client[57] 	downloads[57] 	12011
scalar tree_5_3_u10_r1_network.client[57] 	avg_time[57] 	0.00602840438
scalar tree_5_3_u10_r1_network.client[58] 	hdistance[58] 	3.5759462151394
scalar tree_5_3_u10_r1_network.client[58] 	downloads[58] 	12048
scalar tree_5_3_u10_r1_network.client[58] 	avg_time[58] 	0.006072208162
scalar tree_5_3_u10_r1_network.client[59] 	hdistance[59] 	3.4766986244269
scalar tree_5_3_u10_r1_network.client[59] 	downloads[59] 	11995
scalar tree_5_3_u10_r1_network.client[59] 	avg_time[59] 	0.005877409768
scalar tree_5_3_u10_r1_network.client[60] 	hdistance[60] 	3.5577969364694
scalar tree_5_3_u10_r1_network.client[60] 	downloads[60] 	11947
scalar tree_5_3_u10_r1_network.client[60] 	avg_time[60] 	0.00600838079
scalar tree_5_3_u10_r1_network.client[61] 	hdistance[61] 	3.5406666666667
scalar tree_5_3_u10_r1_network.client[61] 	downloads[61] 	12000
scalar tree_5_3_u10_r1_network.client[61] 	avg_time[61] 	0.005977336687
scalar tree_5_3_u10_r1_network.client[62] 	hdistance[62] 	3.5844416562108
scalar tree_5_3_u10_r1_network.client[62] 	downloads[62] 	11955
scalar tree_5_3_u10_r1_network.client[62] 	avg_time[62] 	0.00608252916
scalar tree_5_3_u10_r1_network.client[63] 	hdistance[63] 	3.4624614615449
scalar tree_5_3_u10_r1_network.client[63] 	downloads[63] 	12001
scalar tree_5_3_u10_r1_network.client[63] 	avg_time[63] 	0.005853707382
scalar tree_5_3_u10_r1_network.client[64] 	hdistance[64] 	3.5047650617386
scalar tree_5_3_u10_r1_network.client[64] 	downloads[64] 	12067
scalar tree_5_3_u10_r1_network.client[64] 	avg_time[64] 	0.005914758771
scalar tree_5_3_u10_r1_network.client[65] 	hdistance[65] 	3.4925135926391
scalar tree_5_3_u10_r1_network.client[65] 	downloads[65] 	11955
scalar tree_5_3_u10_r1_network.client[65] 	avg_time[65] 	0.005895838225
scalar tree_5_3_u10_r1_network.client[66] 	hdistance[66] 	3.6015724067969
scalar tree_5_3_u10_r1_network.client[66] 	downloads[66] 	11829
scalar tree_5_3_u10_r1_network.client[66] 	avg_time[66] 	0.006102763785
scalar tree_5_3_u10_r1_network.client[67] 	hdistance[67] 	3.6457567657868
scalar tree_5_3_u10_r1_network.client[67] 	downloads[67] 	11972
scalar tree_5_3_u10_r1_network.client[67] 	avg_time[67] 	0.006197377547
scalar tree_5_3_u10_r1_network.client[68] 	hdistance[68] 	3.5215663548307
scalar tree_5_3_u10_r1_network.client[68] 	downloads[68] 	12079
scalar tree_5_3_u10_r1_network.client[68] 	avg_time[68] 	0.005950586361
scalar tree_5_3_u10_r1_network.client[69] 	hdistance[69] 	3.5039728521768
scalar tree_5_3_u10_r1_network.client[69] 	downloads[69] 	12082
scalar tree_5_3_u10_r1_network.client[69] 	avg_time[69] 	0.005915831776
scalar tree_5_3_u10_r1_network.client[70] 	hdistance[70] 	3.5418925579103
scalar tree_5_3_u10_r1_network.client[70] 	downloads[70] 	12174
scalar tree_5_3_u10_r1_network.client[70] 	avg_time[70] 	0.005989770539
scalar tree_5_3_u10_r1_network.client[71] 	hdistance[71] 	3.6031759368173
scalar tree_5_3_u10_r1_network.client[71] 	downloads[71] 	11902
scalar tree_5_3_u10_r1_network.client[71] 	avg_time[71] 	0.006110141824
scalar tree_5_3_u10_r1_network.client[72] 	hdistance[72] 	3.4902041150914
scalar tree_5_3_u10_r1_network.client[72] 	downloads[72] 	12199
scalar tree_5_3_u10_r1_network.client[72] 	avg_time[72] 	0.005895435555
scalar tree_5_3_u10_r1_network.client[73] 	hdistance[73] 	3.4875332446809
scalar tree_5_3_u10_r1_network.client[73] 	downloads[73] 	12032
scalar tree_5_3_u10_r1_network.client[73] 	avg_time[73] 	0.005889540718
scalar tree_5_3_u10_r1_network.client[74] 	hdistance[74] 	3.4521739130435
scalar tree_5_3_u10_r1_network.client[74] 	downloads[74] 	11845
scalar tree_5_3_u10_r1_network.client[74] 	avg_time[74] 	0.00582732439
scalar tree_5_3_u10_r1_network.client[75] 	hdistance[75] 	3.572145855626
scalar tree_5_3_u10_r1_network.client[75] 	downloads[75] 	12149
scalar tree_5_3_u10_r1_network.client[75] 	avg_time[75] 	0.006054044253
scalar tree_5_3_u10_r1_network.client[76] 	hdistance[76] 	3.6069446779889
scalar tree_5_3_u10_r1_network.client[76] 	downloads[76] 	11894
scalar tree_5_3_u10_r1_network.client[76] 	avg_time[76] 	0.006131003827
scalar tree_5_3_u10_r1_network.client[77] 	hdistance[77] 	3.5240127175368
scalar tree_5_3_u10_r1_network.client[77] 	downloads[77] 	11952
scalar tree_5_3_u10_r1_network.client[77] 	avg_time[77] 	0.005960368177
scalar tree_5_3_u10_r1_network.client[78] 	hdistance[78] 	3.4908771342484
scalar tree_5_3_u10_r1_network.client[78] 	downloads[78] 	11948
scalar tree_5_3_u10_r1_network.client[78] 	avg_time[78] 	0.005899325351
scalar tree_5_3_u10_r1_network.client[79] 	hdistance[79] 	3.5367914167441
scalar tree_5_3_u10_r1_network.client[79] 	downloads[79] 	11837
scalar tree_5_3_u10_r1_network.client[79] 	avg_time[79] 	0.005985779369
scalar tree_5_3_u10_r1_network.client[80] 	hdistance[80] 	3.6641971197869
scalar tree_5_3_u10_r1_network.client[80] 	downloads[80] 	12013
scalar tree_5_3_u10_r1_network.client[80] 	avg_time[80] 	0.006187522816
scalar tree_5_3_u10_r1_network.client[81] 	hdistance[81] 	3.515785054576
scalar tree_5_3_u10_r1_network.client[81] 	downloads[81] 	11910
scalar tree_5_3_u10_r1_network.client[81] 	avg_time[81] 	0.005931741526
scalar tree_5_3_u10_r1_network.client[82] 	hdistance[82] 	3.4825018615041
scalar tree_5_3_u10_r1_network.client[82] 	downloads[82] 	12087
scalar tree_5_3_u10_r1_network.client[82] 	avg_time[82] 	0.005876092095
scalar tree_5_3_u10_r1_network.client[83] 	hdistance[83] 	3.5126071398852
scalar tree_5_3_u10_r1_network.client[83] 	downloads[83] 	12017
scalar tree_5_3_u10_r1_network.client[83] 	avg_time[83] 	0.005929122548
scalar tree_5_3_u10_r1_network.client[84] 	hdistance[84] 	3.5620632279534
scalar tree_5_3_u10_r1_network.client[84] 	downloads[84] 	12020
scalar tree_5_3_u10_r1_network.client[84] 	avg_time[84] 	0.006042583958
scalar tree_5_3_u10_r1_network.client[85] 	hdistance[85] 	3.5846103147141
scalar tree_5_3_u10_r1_network.client[85] 	downloads[85] 	12138
scalar tree_5_3_u10_r1_network.client[85] 	avg_time[85] 	0.006086327683
scalar tree_5_3_u10_r1_network.client[86] 	hdistance[86] 	3.5346304148998
scalar tree_5_3_u10_r1_network.client[86] 	downloads[86] 	12027
scalar tree_5_3_u10_r1_network.client[86] 	avg_time[86] 	0.005969464284
scalar tree_5_3_u10_r1_network.client[87] 	hdistance[87] 	3.4851288830139
scalar tree_5_3_u10_r1_network.client[87] 	downloads[87] 	12104
scalar tree_5_3_u10_r1_network.client[87] 	avg_time[87] 	0.005886139649
scalar tree_5_3_u10_r1_network.client[88] 	hdistance[88] 	3.4791528788882
scalar tree_5_3_u10_r1_network.client[88] 	downloads[88] 	12088
scalar tree_5_3_u10_r1_network.client[88] 	avg_time[88] 	0.005888276143
scalar tree_5_3_u10_r1_network.client[89] 	hdistance[89] 	3.581503659348
scalar tree_5_3_u10_r1_network.client[89] 	downloads[89] 	12024
scalar tree_5_3_u10_r1_network.client[89] 	avg_time[89] 	0.006070001765
scalar tree_5_3_u10_r1_network.client[90] 	hdistance[90] 	3.5259110665329
scalar tree_5_3_u10_r1_network.client[90] 	downloads[90] 	11964
scalar tree_5_3_u10_r1_network.client[90] 	avg_time[90] 	0.005951724315
scalar tree_5_3_u10_r1_network.client[91] 	hdistance[91] 	3.4809926958831
scalar tree_5_3_u10_r1_network.client[91] 	downloads[91] 	12048
scalar tree_5_3_u10_r1_network.client[91] 	avg_time[91] 	0.005892551308
scalar tree_5_3_u10_r1_network.client[92] 	hdistance[92] 	3.4945261437909
scalar tree_5_3_u10_r1_network.client[92] 	downloads[92] 	12240
scalar tree_5_3_u10_r1_network.client[92] 	avg_time[92] 	0.005912460224
scalar tree_5_3_u10_r1_network.client[93] 	hdistance[93] 	3.6354105998835
scalar tree_5_3_u10_r1_network.client[93] 	downloads[93] 	12019
scalar tree_5_3_u10_r1_network.client[93] 	avg_time[93] 	0.006160488163
scalar tree_5_3_u10_r1_network.client[94] 	hdistance[94] 	3.6292568361013
scalar tree_5_3_u10_r1_network.client[94] 	downloads[94] 	11922
scalar tree_5_3_u10_r1_network.client[94] 	avg_time[94] 	0.006161069585
scalar tree_5_3_u10_r1_network.client[95] 	hdistance[95] 	3.5123214434884
scalar tree_5_3_u10_r1_network.client[95] 	downloads[95] 	11971
scalar tree_5_3_u10_r1_network.client[95] 	avg_time[95] 	0.005943725823
scalar tree_5_3_u10_r1_network.client[96] 	hdistance[96] 	3.4947026657553
scalar tree_5_3_u10_r1_network.client[96] 	downloads[96] 	11704
scalar tree_5_3_u10_r1_network.client[96] 	avg_time[96] 	0.005896100955
scalar tree_5_3_u10_r1_network.client[97] 	hdistance[97] 	3.5283991683992
scalar tree_5_3_u10_r1_network.client[97] 	downloads[97] 	12025
scalar tree_5_3_u10_r1_network.client[97] 	avg_time[97] 	0.00596742281
scalar tree_5_3_u10_r1_network.client[98] 	hdistance[98] 	3.5919029013218
scalar tree_5_3_u10_r1_network.client[98] 	downloads[98] 	12029
scalar tree_5_3_u10_r1_network.client[98] 	avg_time[98] 	0.006104910134
scalar tree_5_3_u10_r1_network.client[99] 	hdistance[99] 	3.4820590207914
scalar tree_5_3_u10_r1_network.client[99] 	downloads[99] 	11928
scalar tree_5_3_u10_r1_network.client[99] 	avg_time[99] 	0.00587001364
scalar tree_5_3_u10_r1_network.client[100] 	hdistance[100] 	3.4945633991301
scalar tree_5_3_u10_r1_network.client[100] 	downloads[100] 	11956
scalar tree_5_3_u10_r1_network.client[100] 	avg_time[100] 	0.005900835074
scalar tree_5_3_u10_r1_network.client[101] 	hdistance[101] 	3.4721828342647
scalar tree_5_3_u10_r1_network.client[101] 	downloads[101] 	11989
scalar tree_5_3_u10_r1_network.client[101] 	avg_time[101] 	0.005860246199
scalar tree_5_3_u10_r1_network.client[102] 	hdistance[102] 	3.5745933131693
scalar tree_5_3_u10_r1_network.client[102] 	downloads[102] 	12233
scalar tree_5_3_u10_r1_network.client[102] 	avg_time[102] 	0.006065066814
scalar tree_5_3_u10_r1_network.client[103] 	hdistance[103] 	3.6028487641391
scalar tree_5_3_u10_r1_network.client[103] 	downloads[103] 	11935
scalar tree_5_3_u10_r1_network.client[103] 	avg_time[103] 	0.006120659358
scalar tree_5_3_u10_r1_network.client[104] 	hdistance[104] 	3.5449442908604
scalar tree_5_3_u10_r1_network.client[104] 	downloads[104] 	11937
scalar tree_5_3_u10_r1_network.client[104] 	avg_time[104] 	0.005997890991
scalar tree_5_3_u10_r1_network.client[105] 	hdistance[105] 	3.4937478877999
scalar tree_5_3_u10_r1_network.client[105] 	downloads[105] 	11836
scalar tree_5_3_u10_r1_network.client[105] 	avg_time[105] 	0.005894555087
scalar tree_5_3_u10_r1_network.client[106] 	hdistance[106] 	3.5210309797666
scalar tree_5_3_u10_r1_network.client[106] 	downloads[106] 	11911
scalar tree_5_3_u10_r1_network.client[106] 	avg_time[106] 	0.005956160911
scalar tree_5_3_u10_r1_network.client[107] 	hdistance[107] 	3.6847717427524
scalar tree_5_3_u10_r1_network.client[107] 	downloads[107] 	12004
scalar tree_5_3_u10_r1_network.client[107] 	avg_time[107] 	0.006254578826
scalar tree_5_3_u10_r1_network.client[108] 	hdistance[108] 	3.5095984575404
scalar tree_5_3_u10_r1_network.client[108] 	downloads[108] 	11929
scalar tree_5_3_u10_r1_network.client[108] 	avg_time[108] 	0.005926562534
scalar tree_5_3_u10_r1_network.client[109] 	hdistance[109] 	3.4813618290258
scalar tree_5_3_u10_r1_network.client[109] 	downloads[109] 	12072
scalar tree_5_3_u10_r1_network.client[109] 	avg_time[109] 	0.005881589931
scalar tree_5_3_u10_r1_network.client[110] 	hdistance[110] 	3.5172069825436
scalar tree_5_3_u10_r1_network.client[110] 	downloads[110] 	12030
scalar tree_5_3_u10_r1_network.client[110] 	avg_time[110] 	0.005940448296
scalar tree_5_3_u10_r1_network.client[111] 	hdistance[111] 	3.5825748800265
scalar tree_5_3_u10_r1_network.client[111] 	downloads[111] 	12086
scalar tree_5_3_u10_r1_network.client[111] 	avg_time[111] 	0.006068694989
scalar tree_5_3_u10_r1_network.client[112] 	hdistance[112] 	3.6156819900832
scalar tree_5_3_u10_r1_network.client[112] 	downloads[112] 	11899
scalar tree_5_3_u10_r1_network.client[112] 	avg_time[112] 	0.006129332608
scalar tree_5_3_u10_r1_network.client[113] 	hdistance[113] 	3.4766607579978
scalar tree_5_3_u10_r1_network.client[113] 	downloads[113] 	11847
scalar tree_5_3_u10_r1_network.client[113] 	avg_time[113] 	0.005877208451
scalar tree_5_3_u10_r1_network.client[114] 	hdistance[114] 	3.5397264871214
scalar tree_5_3_u10_r1_network.client[114] 	downloads[114] 	11919
scalar tree_5_3_u10_r1_network.client[114] 	avg_time[114] 	0.005971170394
scalar tree_5_3_u10_r1_network.client[115] 	hdistance[115] 	3.4998753013551
scalar tree_5_3_u10_r1_network.client[115] 	downloads[115] 	12029
scalar tree_5_3_u10_r1_network.client[115] 	avg_time[115] 	0.005906382425
scalar tree_5_3_u10_r1_network.client[116] 	hdistance[116] 	3.5974275453103
scalar tree_5_3_u10_r1_network.client[116] 	downloads[116] 	11973
scalar tree_5_3_u10_r1_network.client[116] 	avg_time[116] 	0.006102249871
scalar tree_5_3_u10_r1_network.client[117] 	hdistance[117] 	3.4902348578492
scalar tree_5_3_u10_r1_network.client[117] 	downloads[117] 	12135
scalar tree_5_3_u10_r1_network.client[117] 	avg_time[117] 	0.00590151545
scalar tree_5_3_u10_r1_network.client[118] 	hdistance[118] 	3.5236116998728
scalar tree_5_3_u10_r1_network.client[118] 	downloads[118] 	11795
scalar tree_5_3_u10_r1_network.client[118] 	avg_time[118] 	0.00595360372
scalar tree_5_3_u10_r1_network.client[119] 	hdistance[119] 	3.5215438363001
scalar tree_5_3_u10_r1_network.client[119] 	downloads[119] 	12022
scalar tree_5_3_u10_r1_network.client[119] 	avg_time[119] 	0.005947657546
scalar tree_5_3_u10_r1_network.client[120] 	hdistance[120] 	3.6363408101774
scalar tree_5_3_u10_r1_network.client[120] 	downloads[120] 	11948
scalar tree_5_3_u10_r1_network.client[120] 	avg_time[120] 	0.006136297311
