version 2
run General-137-20160831-22:29:25-8710
attr a 0.9
attr cd tfc
attr configname General
attr cr lru
attr datetime 20160831-22:29:25
attr experiment General
attr fsize 1
attr inifile hw5115/scenario_Y/omnetp.ini
attr iterationvars "$name=tree_4_3, $un=02, $rep=6, $cd=tfc, $cr=lru, $fsize=1, $a=0.9, $sl=nrr, $ttl=1000, $variance=0.05"
attr iterationvars2 "$name=tree_4_3, $un=02, $rep=6, $cd=tfc, $cr=lru, $fsize=1, $a=0.9, $sl=nrr, $ttl=1000, $variance=0.05, $repetition=0"
attr measurement "$name=tree_4_3, $un=02, $rep=6, $cd=tfc, $cr=lru, $fsize=1, $a=0.9, $sl=nrr, $ttl=1000, $variance=0.05"
attr name tree_4_3
attr network networks.${name}_u${un}_r${rep}_network
attr processid 8710
attr rep 6
attr repetition 0
attr replication #0
attr resultdir results
attr runnumber 137
attr seedset 6
attr sl nrr
attr ttl 1000
attr un 02
attr variance 0.05

scalar . 	a 	0.9
scalar . 	fsize 	1
scalar . 	rep 	6
scalar . 	ttl 	1000
scalar . 	un 	02
scalar . 	variance 	0.05
scalar tree_4_3_u02_r6_network.content_distribution 	repo-0 	0
scalar tree_4_3_u02_r6_network.content_distribution 	client-0 	13
scalar tree_4_3_u02_r6_network.content_distribution 	client-1 	14
scalar tree_4_3_u02_r6_network.content_distribution 	client-2 	15
scalar tree_4_3_u02_r6_network.content_distribution 	client-3 	16
scalar tree_4_3_u02_r6_network.content_distribution 	client-4 	17
scalar tree_4_3_u02_r6_network.content_distribution 	client-5 	18
scalar tree_4_3_u02_r6_network.content_distribution 	client-6 	19
scalar tree_4_3_u02_r6_network.content_distribution 	client-7 	20
scalar tree_4_3_u02_r6_network.content_distribution 	client-8 	21
scalar tree_4_3_u02_r6_network.content_distribution 	client-9 	22
scalar tree_4_3_u02_r6_network.content_distribution 	client-10 	23
scalar tree_4_3_u02_r6_network.content_distribution 	client-11 	24
scalar tree_4_3_u02_r6_network.content_distribution 	client-12 	25
scalar tree_4_3_u02_r6_network.content_distribution 	client-13 	26
scalar tree_4_3_u02_r6_network.content_distribution 	client-14 	27
scalar tree_4_3_u02_r6_network.content_distribution 	client-15 	28
scalar tree_4_3_u02_r6_network.content_distribution 	client-16 	29
scalar tree_4_3_u02_r6_network.content_distribution 	client-17 	30
scalar tree_4_3_u02_r6_network.content_distribution 	client-18 	31
scalar tree_4_3_u02_r6_network.content_distribution 	client-19 	32
scalar tree_4_3_u02_r6_network.content_distribution 	client-20 	33
scalar tree_4_3_u02_r6_network.content_distribution 	client-21 	34
scalar tree_4_3_u02_r6_network.content_distribution 	client-22 	35
scalar tree_4_3_u02_r6_network.content_distribution 	client-23 	36
scalar tree_4_3_u02_r6_network.content_distribution 	client-24 	37
scalar tree_4_3_u02_r6_network.content_distribution 	client-25 	38
scalar tree_4_3_u02_r6_network.content_distribution 	client-26 	39
scalar tree_4_3_u02_r6_network.content_distribution 	repo-0_card 	100000
scalar tree_4_3_u02_r6_network.content_distribution 	repo-0_price 	0
scalar tree_4_3_u02_r6_network.statistics 	stabilization_time 	1755.3
scalar tree_4_3_u02_r6_network.statistics 	p_hit 	0.21739832185817
scalar tree_4_3_u02_r6_network.statistics 	interests 	24610.825
scalar tree_4_3_u02_r6_network.statistics 	data 	16514.475
scalar tree_4_3_u02_r6_network.statistics 	hdistance 	2.6536417414949
scalar tree_4_3_u02_r6_network.statistics 	avg_time 	0.004079482939
scalar tree_4_3_u02_r6_network.statistics 	downloads 	323852
scalar tree_4_3_u02_r6_network.statistics 	total_cost 	0
scalar tree_4_3_u02_r6_network.statistics 	total_replicas 	100000
scalar tree_4_3_u02_r6_network.statistics 	inner_hit 	0.38613317194274
scalar tree_4_3_u02_r6_network.node[0].core_layer 	interests[0] 	202752
scalar tree_4_3_u02_r6_network.node[0].core_layer 	repo_load[0] 	198802
scalar tree_4_3_u02_r6_network.node[0].core_layer 	data[0] 	0
scalar tree_4_3_u02_r6_network.node[0].core_layer 	repo_int[0] 	198802
scalar tree_4_3_u02_r6_network.node[0].content_store 	p_hit[0] 	0.019481928661616
scalar tree_4_3_u02_r6_network.node[0].content_store 	hits[0] 	3950
scalar tree_4_3_u02_r6_network.node[0].content_store 	misses[0] 	198802
scalar tree_4_3_u02_r6_network.node[0].content_store 	decision_yes[0] 	1090
scalar tree_4_3_u02_r6_network.node[0].content_store 	decision_no[0] 	197712
scalar tree_4_3_u02_r6_network.node[0].content_store 	decision_ratio[0] 	0.0054828422249273
scalar tree_4_3_u02_r6_network.node[1].core_layer 	interests[1] 	71234
scalar tree_4_3_u02_r6_network.node[1].core_layer 	data[1] 	68982
scalar tree_4_3_u02_r6_network.node[1].content_store 	p_hit[1] 	0.031600078614145
scalar tree_4_3_u02_r6_network.node[1].content_store 	hits[1] 	2251
scalar tree_4_3_u02_r6_network.node[1].content_store 	misses[1] 	68983
scalar tree_4_3_u02_r6_network.node[1].content_store 	decision_yes[1] 	69
scalar tree_4_3_u02_r6_network.node[1].content_store 	decision_no[1] 	68913
scalar tree_4_3_u02_r6_network.node[1].content_store 	decision_ratio[1] 	0.0010002609376359
scalar tree_4_3_u02_r6_network.node[2].core_layer 	interests[2] 	71668
scalar tree_4_3_u02_r6_network.node[2].core_layer 	data[2] 	69585
scalar tree_4_3_u02_r6_network.node[2].content_store 	p_hit[2] 	0.029036669085226
scalar tree_4_3_u02_r6_network.node[2].content_store 	hits[2] 	2081
scalar tree_4_3_u02_r6_network.node[2].content_store 	misses[2] 	69587
scalar tree_4_3_u02_r6_network.node[2].content_store 	decision_yes[2] 	74
scalar tree_4_3_u02_r6_network.node[2].content_store 	decision_no[2] 	69511
scalar tree_4_3_u02_r6_network.node[2].content_store 	decision_ratio[2] 	0.0010634475820938
scalar tree_4_3_u02_r6_network.node[3].core_layer 	interests[3] 	71615
scalar tree_4_3_u02_r6_network.node[3].core_layer 	data[3] 	68862
scalar tree_4_3_u02_r6_network.node[3].content_store 	p_hit[3] 	0.038441667248481
scalar tree_4_3_u02_r6_network.node[3].content_store 	hits[3] 	2753
scalar tree_4_3_u02_r6_network.node[3].content_store 	misses[3] 	68862
scalar tree_4_3_u02_r6_network.node[3].content_store 	decision_yes[3] 	96
scalar tree_4_3_u02_r6_network.node[3].content_store 	decision_no[3] 	68766
scalar tree_4_3_u02_r6_network.node[3].content_store 	decision_ratio[3] 	0.0013940925328919
scalar tree_4_3_u02_r6_network.node[4].core_layer 	interests[4] 	26157
scalar tree_4_3_u02_r6_network.node[4].core_layer 	data[4] 	24382
scalar tree_4_3_u02_r6_network.node[4].content_store 	p_hit[4] 	0.067859464005811
scalar tree_4_3_u02_r6_network.node[4].content_store 	hits[4] 	1775
scalar tree_4_3_u02_r6_network.node[4].content_store 	misses[4] 	24382
scalar tree_4_3_u02_r6_network.node[4].content_store 	decision_yes[4] 	48
scalar tree_4_3_u02_r6_network.node[4].content_store 	decision_no[4] 	24334
scalar tree_4_3_u02_r6_network.node[4].content_store 	decision_ratio[4] 	0.0019686654089082
scalar tree_4_3_u02_r6_network.node[5].core_layer 	interests[5] 	26260
scalar tree_4_3_u02_r6_network.node[5].core_layer 	data[5] 	24560
scalar tree_4_3_u02_r6_network.node[5].content_store 	p_hit[5] 	0.064737242955065
scalar tree_4_3_u02_r6_network.node[5].content_store 	hits[5] 	1700
scalar tree_4_3_u02_r6_network.node[5].content_store 	misses[5] 	24560
scalar tree_4_3_u02_r6_network.node[5].content_store 	decision_yes[5] 	75
scalar tree_4_3_u02_r6_network.node[5].content_store 	decision_no[5] 	24485
scalar tree_4_3_u02_r6_network.node[5].content_store 	decision_ratio[5] 	0.0030537459283388
scalar tree_4_3_u02_r6_network.node[6].core_layer 	interests[6] 	27761
scalar tree_4_3_u02_r6_network.node[6].core_layer 	data[6] 	25117
scalar tree_4_3_u02_r6_network.node[6].content_store 	p_hit[6] 	0.095241525881633
scalar tree_4_3_u02_r6_network.node[6].content_store 	hits[6] 	2644
scalar tree_4_3_u02_r6_network.node[6].content_store 	misses[6] 	25117
scalar tree_4_3_u02_r6_network.node[6].content_store 	decision_yes[6] 	90
scalar tree_4_3_u02_r6_network.node[6].content_store 	decision_no[6] 	25027
scalar tree_4_3_u02_r6_network.node[6].content_store 	decision_ratio[6] 	0.0035832304813473
scalar tree_4_3_u02_r6_network.node[7].core_layer 	interests[7] 	26248
scalar tree_4_3_u02_r6_network.node[7].core_layer 	data[7] 	24533
scalar tree_4_3_u02_r6_network.node[7].content_store 	p_hit[7] 	0.065338311490399
scalar tree_4_3_u02_r6_network.node[7].content_store 	hits[7] 	1715
scalar tree_4_3_u02_r6_network.node[7].content_store 	misses[7] 	24533
scalar tree_4_3_u02_r6_network.node[7].content_store 	decision_yes[7] 	46
scalar tree_4_3_u02_r6_network.node[7].content_store 	decision_no[7] 	24487
scalar tree_4_3_u02_r6_network.node[7].content_store 	decision_ratio[7] 	0.0018750254758896
scalar tree_4_3_u02_r6_network.node[8].core_layer 	interests[8] 	25797
scalar tree_4_3_u02_r6_network.node[8].core_layer 	data[8] 	24196
scalar tree_4_3_u02_r6_network.node[8].content_store 	p_hit[8] 	0.062061480017056
scalar tree_4_3_u02_r6_network.node[8].content_store 	hits[8] 	1601
scalar tree_4_3_u02_r6_network.node[8].content_store 	misses[8] 	24196
scalar tree_4_3_u02_r6_network.node[8].content_store 	decision_yes[8] 	26
scalar tree_4_3_u02_r6_network.node[8].content_store 	decision_no[8] 	24170
scalar tree_4_3_u02_r6_network.node[8].content_store 	decision_ratio[8] 	0.0010745577781451
scalar tree_4_3_u02_r6_network.node[9].core_layer 	interests[9] 	26604
scalar tree_4_3_u02_r6_network.node[9].core_layer 	data[9] 	24464
scalar tree_4_3_u02_r6_network.node[9].content_store 	p_hit[9] 	0.080439031724553
scalar tree_4_3_u02_r6_network.node[9].content_store 	hits[9] 	2140
scalar tree_4_3_u02_r6_network.node[9].content_store 	misses[9] 	24464
scalar tree_4_3_u02_r6_network.node[9].content_store 	decision_yes[9] 	72
scalar tree_4_3_u02_r6_network.node[9].content_store 	decision_no[9] 	24392
scalar tree_4_3_u02_r6_network.node[9].content_store 	decision_ratio[9] 	0.0029431000654022
scalar tree_4_3_u02_r6_network.node[10].core_layer 	interests[10] 	34107
scalar tree_4_3_u02_r6_network.node[10].core_layer 	data[10] 	31979
scalar tree_4_3_u02_r6_network.node[10].content_store 	p_hit[10] 	0.062362564869382
scalar tree_4_3_u02_r6_network.node[10].content_store 	hits[10] 	2127
scalar tree_4_3_u02_r6_network.node[10].content_store 	misses[10] 	31980
scalar tree_4_3_u02_r6_network.node[10].content_store 	decision_yes[10] 	54
scalar tree_4_3_u02_r6_network.node[10].content_store 	decision_no[10] 	31925
scalar tree_4_3_u02_r6_network.node[10].content_store 	decision_ratio[10] 	0.0016886081490978
scalar tree_4_3_u02_r6_network.node[11].core_layer 	interests[11] 	25747
scalar tree_4_3_u02_r6_network.node[11].core_layer 	data[11] 	24132
scalar tree_4_3_u02_r6_network.node[11].content_store 	p_hit[11] 	0.06272575445683
scalar tree_4_3_u02_r6_network.node[11].content_store 	hits[11] 	1615
scalar tree_4_3_u02_r6_network.node[11].content_store 	misses[11] 	24132
scalar tree_4_3_u02_r6_network.node[11].content_store 	decision_yes[11] 	60
scalar tree_4_3_u02_r6_network.node[11].content_store 	decision_no[11] 	24072
scalar tree_4_3_u02_r6_network.node[11].content_store 	decision_ratio[11] 	0.0024863252113376
scalar tree_4_3_u02_r6_network.node[12].core_layer 	interests[12] 	19129
scalar tree_4_3_u02_r6_network.node[12].core_layer 	data[12] 	16654
scalar tree_4_3_u02_r6_network.node[12].content_store 	p_hit[12] 	0.12938470385279
scalar tree_4_3_u02_r6_network.node[12].content_store 	hits[12] 	2475
scalar tree_4_3_u02_r6_network.node[12].content_store 	misses[12] 	16654
scalar tree_4_3_u02_r6_network.node[12].content_store 	decision_yes[12] 	84
scalar tree_4_3_u02_r6_network.node[12].content_store 	decision_no[12] 	16570
scalar tree_4_3_u02_r6_network.node[12].content_store 	decision_ratio[12] 	0.0050438333133181
scalar tree_4_3_u02_r6_network.node[13].core_layer 	interests[13] 	12042
scalar tree_4_3_u02_r6_network.node[13].core_layer 	data[13] 	8619
scalar tree_4_3_u02_r6_network.node[13].content_store 	p_hit[13] 	0.28425510712506
scalar tree_4_3_u02_r6_network.node[13].content_store 	hits[13] 	3423
scalar tree_4_3_u02_r6_network.node[13].content_store 	misses[13] 	8619
scalar tree_4_3_u02_r6_network.node[13].content_store 	decision_yes[13] 	24
scalar tree_4_3_u02_r6_network.node[13].content_store 	decision_no[13] 	8595
scalar tree_4_3_u02_r6_network.node[13].content_store 	decision_ratio[13] 	0.0027845457709711
scalar tree_4_3_u02_r6_network.node[14].core_layer 	interests[14] 	12133
scalar tree_4_3_u02_r6_network.node[14].core_layer 	data[14] 	8496
scalar tree_4_3_u02_r6_network.node[14].content_store 	p_hit[14] 	0.29976098244457
scalar tree_4_3_u02_r6_network.node[14].content_store 	hits[14] 	3637
scalar tree_4_3_u02_r6_network.node[14].content_store 	misses[14] 	8496
scalar tree_4_3_u02_r6_network.node[14].content_store 	decision_yes[14] 	23
scalar tree_4_3_u02_r6_network.node[14].content_store 	decision_no[14] 	8473
scalar tree_4_3_u02_r6_network.node[14].content_store 	decision_ratio[14] 	0.0027071563088512
scalar tree_4_3_u02_r6_network.node[15].core_layer 	interests[15] 	12205
scalar tree_4_3_u02_r6_network.node[15].core_layer 	data[15] 	8655
scalar tree_4_3_u02_r6_network.node[15].content_store 	p_hit[15] 	0.29086439983613
scalar tree_4_3_u02_r6_network.node[15].content_store 	hits[15] 	3550
scalar tree_4_3_u02_r6_network.node[15].content_store 	misses[15] 	8655
scalar tree_4_3_u02_r6_network.node[15].content_store 	decision_yes[15] 	21
scalar tree_4_3_u02_r6_network.node[15].content_store 	decision_no[15] 	8634
scalar tree_4_3_u02_r6_network.node[15].content_store 	decision_ratio[15] 	0.0024263431542461
scalar tree_4_3_u02_r6_network.node[16].core_layer 	interests[16] 	12196
scalar tree_4_3_u02_r6_network.node[16].core_layer 	data[16] 	8645
scalar tree_4_3_u02_r6_network.node[16].content_store 	p_hit[16] 	0.29116103640538
scalar tree_4_3_u02_r6_network.node[16].content_store 	hits[16] 	3551
scalar tree_4_3_u02_r6_network.node[16].content_store 	misses[16] 	8645
scalar tree_4_3_u02_r6_network.node[16].content_store 	decision_yes[16] 	30
scalar tree_4_3_u02_r6_network.node[16].content_store 	decision_no[16] 	8615
scalar tree_4_3_u02_r6_network.node[16].content_store 	decision_ratio[16] 	0.0034702139965298
scalar tree_4_3_u02_r6_network.node[17].core_layer 	interests[17] 	12319
scalar tree_4_3_u02_r6_network.node[17].core_layer 	data[17] 	8685
scalar tree_4_3_u02_r6_network.node[17].content_store 	p_hit[17] 	0.29491030116081
scalar tree_4_3_u02_r6_network.node[17].content_store 	hits[17] 	3633
scalar tree_4_3_u02_r6_network.node[17].content_store 	misses[17] 	8686
scalar tree_4_3_u02_r6_network.node[17].content_store 	decision_yes[17] 	30
scalar tree_4_3_u02_r6_network.node[17].content_store 	decision_no[17] 	8655
scalar tree_4_3_u02_r6_network.node[17].content_store 	decision_ratio[17] 	0.003454231433506
scalar tree_4_3_u02_r6_network.node[18].core_layer 	interests[18] 	12022
scalar tree_4_3_u02_r6_network.node[18].core_layer 	data[18] 	8515
scalar tree_4_3_u02_r6_network.node[18].content_store 	p_hit[18] 	0.29179836965563
scalar tree_4_3_u02_r6_network.node[18].content_store 	hits[18] 	3508
scalar tree_4_3_u02_r6_network.node[18].content_store 	misses[18] 	8514
scalar tree_4_3_u02_r6_network.node[18].content_store 	decision_yes[18] 	25
scalar tree_4_3_u02_r6_network.node[18].content_store 	decision_no[18] 	8490
scalar tree_4_3_u02_r6_network.node[18].content_store 	decision_ratio[18] 	0.0029359953024075
scalar tree_4_3_u02_r6_network.node[19].core_layer 	interests[19] 	12373
scalar tree_4_3_u02_r6_network.node[19].core_layer 	data[19] 	8843
scalar tree_4_3_u02_r6_network.node[19].content_store 	p_hit[19] 	0.28529863412269
scalar tree_4_3_u02_r6_network.node[19].content_store 	hits[19] 	3530
scalar tree_4_3_u02_r6_network.node[19].content_store 	misses[19] 	8843
scalar tree_4_3_u02_r6_network.node[19].content_store 	decision_yes[19] 	23
scalar tree_4_3_u02_r6_network.node[19].content_store 	decision_no[19] 	8820
scalar tree_4_3_u02_r6_network.node[19].content_store 	decision_ratio[19] 	0.0026009272871198
scalar tree_4_3_u02_r6_network.node[20].core_layer 	interests[20] 	12234
scalar tree_4_3_u02_r6_network.node[20].core_layer 	data[20] 	8662
scalar tree_4_3_u02_r6_network.node[20].content_store 	p_hit[20] 	0.29197318947196
scalar tree_4_3_u02_r6_network.node[20].content_store 	hits[20] 	3572
scalar tree_4_3_u02_r6_network.node[20].content_store 	misses[20] 	8662
scalar tree_4_3_u02_r6_network.node[20].content_store 	decision_yes[20] 	23
scalar tree_4_3_u02_r6_network.node[20].content_store 	decision_no[20] 	8639
scalar tree_4_3_u02_r6_network.node[20].content_store 	decision_ratio[20] 	0.0026552759178019
scalar tree_4_3_u02_r6_network.node[21].core_layer 	interests[21] 	12451
scalar tree_4_3_u02_r6_network.node[21].core_layer 	data[21] 	8826
scalar tree_4_3_u02_r6_network.node[21].content_store 	p_hit[21] 	0.29114127379327
scalar tree_4_3_u02_r6_network.node[21].content_store 	hits[21] 	3625
scalar tree_4_3_u02_r6_network.node[21].content_store 	misses[21] 	8826
scalar tree_4_3_u02_r6_network.node[21].content_store 	decision_yes[21] 	20
scalar tree_4_3_u02_r6_network.node[21].content_store 	decision_no[21] 	8806
scalar tree_4_3_u02_r6_network.node[21].content_store 	decision_ratio[21] 	0.0022660321776569
scalar tree_4_3_u02_r6_network.node[22].core_layer 	interests[22] 	12280
scalar tree_4_3_u02_r6_network.node[22].core_layer 	data[22] 	8657
scalar tree_4_3_u02_r6_network.node[22].content_store 	p_hit[22] 	0.2950325732899
scalar tree_4_3_u02_r6_network.node[22].content_store 	hits[22] 	3623
scalar tree_4_3_u02_r6_network.node[22].content_store 	misses[22] 	8657
scalar tree_4_3_u02_r6_network.node[22].content_store 	decision_yes[22] 	32
scalar tree_4_3_u02_r6_network.node[22].content_store 	decision_no[22] 	8625
scalar tree_4_3_u02_r6_network.node[22].content_store 	decision_ratio[22] 	0.0036964306341689
scalar tree_4_3_u02_r6_network.node[23].core_layer 	interests[23] 	12220
scalar tree_4_3_u02_r6_network.node[23].core_layer 	data[23] 	8722
scalar tree_4_3_u02_r6_network.node[23].content_store 	p_hit[23] 	0.28625204582651
scalar tree_4_3_u02_r6_network.node[23].content_store 	hits[23] 	3498
scalar tree_4_3_u02_r6_network.node[23].content_store 	misses[23] 	8722
scalar tree_4_3_u02_r6_network.node[23].content_store 	decision_yes[23] 	34
scalar tree_4_3_u02_r6_network.node[23].content_store 	decision_no[23] 	8688
scalar tree_4_3_u02_r6_network.node[23].content_store 	decision_ratio[23] 	0.0038981884888787
scalar tree_4_3_u02_r6_network.node[24].core_layer 	interests[24] 	12112
scalar tree_4_3_u02_r6_network.node[24].core_layer 	data[24] 	8538
scalar tree_4_3_u02_r6_network.node[24].content_store 	p_hit[24] 	0.29507926023778
scalar tree_4_3_u02_r6_network.node[24].content_store 	hits[24] 	3574
scalar tree_4_3_u02_r6_network.node[24].content_store 	misses[24] 	8538
scalar tree_4_3_u02_r6_network.node[24].content_store 	decision_yes[24] 	16
scalar tree_4_3_u02_r6_network.node[24].content_store 	decision_no[24] 	8522
scalar tree_4_3_u02_r6_network.node[24].content_store 	decision_ratio[24] 	0.001873975169829
scalar tree_4_3_u02_r6_network.node[25].core_layer 	interests[25] 	12146
scalar tree_4_3_u02_r6_network.node[25].core_layer 	data[25] 	8708
scalar tree_4_3_u02_r6_network.node[25].content_store 	p_hit[25] 	0.2830561501729
scalar tree_4_3_u02_r6_network.node[25].content_store 	hits[25] 	3438
scalar tree_4_3_u02_r6_network.node[25].content_store 	misses[25] 	8708
scalar tree_4_3_u02_r6_network.node[25].content_store 	decision_yes[25] 	23
scalar tree_4_3_u02_r6_network.node[25].content_store 	decision_no[25] 	8685
scalar tree_4_3_u02_r6_network.node[25].content_store 	decision_ratio[25] 	0.0026412494258153
scalar tree_4_3_u02_r6_network.node[26].core_layer 	interests[26] 	11896
scalar tree_4_3_u02_r6_network.node[26].core_layer 	data[26] 	8448
scalar tree_4_3_u02_r6_network.node[26].content_store 	p_hit[26] 	0.28984532616005
scalar tree_4_3_u02_r6_network.node[26].content_store 	hits[26] 	3448
scalar tree_4_3_u02_r6_network.node[26].content_store 	misses[26] 	8448
scalar tree_4_3_u02_r6_network.node[26].content_store 	decision_yes[26] 	23
scalar tree_4_3_u02_r6_network.node[26].content_store 	decision_no[26] 	8425
scalar tree_4_3_u02_r6_network.node[26].content_store 	decision_ratio[26] 	0.0027225378787879
scalar tree_4_3_u02_r6_network.node[27].core_layer 	interests[27] 	12410
scalar tree_4_3_u02_r6_network.node[27].core_layer 	data[27] 	8751
scalar tree_4_3_u02_r6_network.node[27].content_store 	p_hit[27] 	0.29484286865431
scalar tree_4_3_u02_r6_network.node[27].content_store 	hits[27] 	3659
scalar tree_4_3_u02_r6_network.node[27].content_store 	misses[27] 	8751
scalar tree_4_3_u02_r6_network.node[27].content_store 	decision_yes[27] 	51
scalar tree_4_3_u02_r6_network.node[27].content_store 	decision_no[27] 	8700
scalar tree_4_3_u02_r6_network.node[27].content_store 	decision_ratio[27] 	0.005827905382242
scalar tree_4_3_u02_r6_network.node[28].core_layer 	interests[28] 	12044
scalar tree_4_3_u02_r6_network.node[28].core_layer 	data[28] 	8519
scalar tree_4_3_u02_r6_network.node[28].content_store 	p_hit[28] 	0.29259382265028
scalar tree_4_3_u02_r6_network.node[28].content_store 	hits[28] 	3524
scalar tree_4_3_u02_r6_network.node[28].content_store 	misses[28] 	8520
scalar tree_4_3_u02_r6_network.node[28].content_store 	decision_yes[28] 	32
scalar tree_4_3_u02_r6_network.node[28].content_store 	decision_no[28] 	8487
scalar tree_4_3_u02_r6_network.node[28].content_store 	decision_ratio[28] 	0.003756309425989
scalar tree_4_3_u02_r6_network.node[29].core_layer 	interests[29] 	12019
scalar tree_4_3_u02_r6_network.node[29].core_layer 	data[29] 	8490
scalar tree_4_3_u02_r6_network.node[29].content_store 	p_hit[29] 	0.293618437474
scalar tree_4_3_u02_r6_network.node[29].content_store 	hits[29] 	3529
scalar tree_4_3_u02_r6_network.node[29].content_store 	misses[29] 	8490
scalar tree_4_3_u02_r6_network.node[29].content_store 	decision_yes[29] 	19
scalar tree_4_3_u02_r6_network.node[29].content_store 	decision_no[29] 	8471
scalar tree_4_3_u02_r6_network.node[29].content_store 	decision_ratio[29] 	0.0022379269729093
scalar tree_4_3_u02_r6_network.node[30].core_layer 	interests[30] 	12250
scalar tree_4_3_u02_r6_network.node[30].core_layer 	data[30] 	8712
scalar tree_4_3_u02_r6_network.node[30].content_store 	p_hit[30] 	0.28881632653061
scalar tree_4_3_u02_r6_network.node[30].content_store 	hits[30] 	3538
scalar tree_4_3_u02_r6_network.node[30].content_store 	misses[30] 	8712
scalar tree_4_3_u02_r6_network.node[30].content_store 	decision_yes[30] 	36
scalar tree_4_3_u02_r6_network.node[30].content_store 	decision_no[30] 	8676
scalar tree_4_3_u02_r6_network.node[30].content_store 	decision_ratio[30] 	0.0041322314049587
scalar tree_4_3_u02_r6_network.node[31].core_layer 	interests[31] 	12137
scalar tree_4_3_u02_r6_network.node[31].core_layer 	data[31] 	8674
scalar tree_4_3_u02_r6_network.node[31].content_store 	p_hit[31] 	0.28524347037983
scalar tree_4_3_u02_r6_network.node[31].content_store 	hits[31] 	3462
scalar tree_4_3_u02_r6_network.node[31].content_store 	misses[31] 	8675
scalar tree_4_3_u02_r6_network.node[31].content_store 	decision_yes[31] 	34
scalar tree_4_3_u02_r6_network.node[31].content_store 	decision_no[31] 	8640
scalar tree_4_3_u02_r6_network.node[31].content_store 	decision_ratio[31] 	0.0039197602029052
scalar tree_4_3_u02_r6_network.node[32].core_layer 	interests[32] 	12278
scalar tree_4_3_u02_r6_network.node[32].core_layer 	data[32] 	8643
scalar tree_4_3_u02_r6_network.node[32].content_store 	p_hit[32] 	0.29605798990064
scalar tree_4_3_u02_r6_network.node[32].content_store 	hits[32] 	3635
scalar tree_4_3_u02_r6_network.node[32].content_store 	misses[32] 	8643
scalar tree_4_3_u02_r6_network.node[32].content_store 	decision_yes[32] 	18
scalar tree_4_3_u02_r6_network.node[32].content_store 	decision_no[32] 	8625
scalar tree_4_3_u02_r6_network.node[32].content_store 	decision_ratio[32] 	0.00208261020479
scalar tree_4_3_u02_r6_network.node[33].core_layer 	interests[33] 	12260
scalar tree_4_3_u02_r6_network.node[33].core_layer 	data[33] 	8586
scalar tree_4_3_u02_r6_network.node[33].content_store 	p_hit[33] 	0.29975530179445
scalar tree_4_3_u02_r6_network.node[33].content_store 	hits[33] 	3675
scalar tree_4_3_u02_r6_network.node[33].content_store 	misses[33] 	8585
scalar tree_4_3_u02_r6_network.node[33].content_store 	decision_yes[33] 	42
scalar tree_4_3_u02_r6_network.node[33].content_store 	decision_no[33] 	8544
scalar tree_4_3_u02_r6_network.node[33].content_store 	decision_ratio[33] 	0.0048916841369672
scalar tree_4_3_u02_r6_network.node[34].core_layer 	interests[34] 	12114
scalar tree_4_3_u02_r6_network.node[34].core_layer 	data[34] 	8534
scalar tree_4_3_u02_r6_network.node[34].content_store 	p_hit[34] 	0.29552583787353
scalar tree_4_3_u02_r6_network.node[34].content_store 	hits[34] 	3580
scalar tree_4_3_u02_r6_network.node[34].content_store 	misses[34] 	8534
scalar tree_4_3_u02_r6_network.node[34].content_store 	decision_yes[34] 	18
scalar tree_4_3_u02_r6_network.node[34].content_store 	decision_no[34] 	8516
scalar tree_4_3_u02_r6_network.node[34].content_store 	decision_ratio[34] 	0.0021092102179517
scalar tree_4_3_u02_r6_network.node[35].core_layer 	interests[35] 	12074
scalar tree_4_3_u02_r6_network.node[35].core_layer 	data[35] 	8577
scalar tree_4_3_u02_r6_network.node[35].content_store 	p_hit[35] 	0.28963061123074
scalar tree_4_3_u02_r6_network.node[35].content_store 	hits[35] 	3497
scalar tree_4_3_u02_r6_network.node[35].content_store 	misses[35] 	8577
scalar tree_4_3_u02_r6_network.node[35].content_store 	decision_yes[35] 	28
scalar tree_4_3_u02_r6_network.node[35].content_store 	decision_no[35] 	8549
scalar tree_4_3_u02_r6_network.node[35].content_store 	decision_ratio[35] 	0.0032645447126035
scalar tree_4_3_u02_r6_network.node[36].core_layer 	interests[36] 	12584
scalar tree_4_3_u02_r6_network.node[36].core_layer 	data[36] 	8715
scalar tree_4_3_u02_r6_network.node[36].content_store 	p_hit[36] 	0.30745390972664
scalar tree_4_3_u02_r6_network.node[36].content_store 	hits[36] 	3869
scalar tree_4_3_u02_r6_network.node[36].content_store 	misses[36] 	8715
scalar tree_4_3_u02_r6_network.node[36].content_store 	decision_yes[36] 	41
scalar tree_4_3_u02_r6_network.node[36].content_store 	decision_no[36] 	8674
scalar tree_4_3_u02_r6_network.node[36].content_store 	decision_ratio[36] 	0.0047045324153758
scalar tree_4_3_u02_r6_network.node[37].core_layer 	interests[37] 	12468
scalar tree_4_3_u02_r6_network.node[37].core_layer 	data[37] 	8797
scalar tree_4_3_u02_r6_network.node[37].content_store 	p_hit[37] 	0.29443375040103
scalar tree_4_3_u02_r6_network.node[37].content_store 	hits[37] 	3671
scalar tree_4_3_u02_r6_network.node[37].content_store 	misses[37] 	8797
scalar tree_4_3_u02_r6_network.node[37].content_store 	decision_yes[37] 	51
scalar tree_4_3_u02_r6_network.node[37].content_store 	decision_no[37] 	8746
scalar tree_4_3_u02_r6_network.node[37].content_store 	decision_ratio[37] 	0.0057974309423667
scalar tree_4_3_u02_r6_network.node[38].core_layer 	interests[38] 	11895
scalar tree_4_3_u02_r6_network.node[38].core_layer 	data[38] 	8451
scalar tree_4_3_u02_r6_network.node[38].content_store 	p_hit[38] 	0.28953341740227
scalar tree_4_3_u02_r6_network.node[38].content_store 	hits[38] 	3444
scalar tree_4_3_u02_r6_network.node[38].content_store 	misses[38] 	8451
scalar tree_4_3_u02_r6_network.node[38].content_store 	decision_yes[38] 	30
scalar tree_4_3_u02_r6_network.node[38].content_store 	decision_no[38] 	8421
scalar tree_4_3_u02_r6_network.node[38].content_store 	decision_ratio[38] 	0.0035498757543486
scalar tree_4_3_u02_r6_network.node[39].core_layer 	interests[39] 	12192
scalar tree_4_3_u02_r6_network.node[39].core_layer 	data[39] 	8665
scalar tree_4_3_u02_r6_network.node[39].content_store 	p_hit[39] 	0.28928805774278
scalar tree_4_3_u02_r6_network.node[39].content_store 	hits[39] 	3527
scalar tree_4_3_u02_r6_network.node[39].content_store 	misses[39] 	8665
scalar tree_4_3_u02_r6_network.node[39].content_store 	decision_yes[39] 	27
scalar tree_4_3_u02_r6_network.node[39].content_store 	decision_no[39] 	8638
scalar tree_4_3_u02_r6_network.node[39].content_store 	decision_ratio[39] 	0.0031159838430467
scalar tree_4_3_u02_r6_network.client[13] 	hdistance[13] 	2.6879146720417
scalar tree_4_3_u02_r6_network.client[13] 	downloads[13] 	11907
scalar tree_4_3_u02_r6_network.client[13] 	avg_time[13] 	0.0041293327
scalar tree_4_3_u02_r6_network.client[14] 	hdistance[14] 	2.6214321482223
scalar tree_4_3_u02_r6_network.client[14] 	downloads[14] 	11982
scalar tree_4_3_u02_r6_network.client[14] 	avg_time[14] 	0.004027204462
scalar tree_4_3_u02_r6_network.client[15] 	hdistance[15] 	2.6466059602649
scalar tree_4_3_u02_r6_network.client[15] 	downloads[15] 	12080
scalar tree_4_3_u02_r6_network.client[15] 	avg_time[15] 	0.004071023485
scalar tree_4_3_u02_r6_network.client[16] 	hdistance[16] 	2.6676953874385
scalar tree_4_3_u02_r6_network.client[16] 	downloads[16] 	11989
scalar tree_4_3_u02_r6_network.client[16] 	avg_time[16] 	0.004106594688
scalar tree_4_3_u02_r6_network.client[17] 	hdistance[17] 	2.6655932623235
scalar tree_4_3_u02_r6_network.client[17] 	downloads[17] 	12111
scalar tree_4_3_u02_r6_network.client[17] 	avg_time[17] 	0.004095942789
scalar tree_4_3_u02_r6_network.client[18] 	hdistance[18] 	2.6583966244726
scalar tree_4_3_u02_r6_network.client[18] 	downloads[18] 	11850
scalar tree_4_3_u02_r6_network.client[18] 	avg_time[18] 	0.00408809831
scalar tree_4_3_u02_r6_network.client[19] 	hdistance[19] 	2.6812432834587
scalar tree_4_3_u02_r6_network.client[19] 	downloads[19] 	12097
scalar tree_4_3_u02_r6_network.client[19] 	avg_time[19] 	0.004135733111
scalar tree_4_3_u02_r6_network.client[20] 	hdistance[20] 	2.644848889631
scalar tree_4_3_u02_r6_network.client[20] 	downloads[20] 	11978
scalar tree_4_3_u02_r6_network.client[20] 	avg_time[20] 	0.004087278102
scalar tree_4_3_u02_r6_network.client[21] 	hdistance[21] 	2.6427402193485
scalar tree_4_3_u02_r6_network.client[21] 	downloads[21] 	12218
scalar tree_4_3_u02_r6_network.client[21] 	avg_time[21] 	0.004081188633
scalar tree_4_3_u02_r6_network.client[22] 	hdistance[22] 	2.6501113769491
scalar tree_4_3_u02_r6_network.client[22] 	downloads[22] 	12121
scalar tree_4_3_u02_r6_network.client[22] 	avg_time[22] 	0.004063853098
scalar tree_4_3_u02_r6_network.client[23] 	hdistance[23] 	2.6811894309617
scalar tree_4_3_u02_r6_network.client[23] 	downloads[23] 	12073
scalar tree_4_3_u02_r6_network.client[23] 	avg_time[23] 	0.004110776748
scalar tree_4_3_u02_r6_network.client[24] 	hdistance[24] 	2.6537305958938
scalar tree_4_3_u02_r6_network.client[24] 	downloads[24] 	11982
scalar tree_4_3_u02_r6_network.client[24] 	avg_time[24] 	0.004066623239
scalar tree_4_3_u02_r6_network.client[25] 	hdistance[25] 	2.6919179333832
scalar tree_4_3_u02_r6_network.client[25] 	downloads[25] 	12039
scalar tree_4_3_u02_r6_network.client[25] 	avg_time[25] 	0.004130074233
scalar tree_4_3_u02_r6_network.client[26] 	hdistance[26] 	2.6541677223208
scalar tree_4_3_u02_r6_network.client[26] 	downloads[26] 	11841
scalar tree_4_3_u02_r6_network.client[26] 	avg_time[26] 	0.004071612621
scalar tree_4_3_u02_r6_network.client[27] 	hdistance[27] 	2.6648035371653
scalar tree_4_3_u02_r6_network.client[27] 	downloads[27] 	11987
scalar tree_4_3_u02_r6_network.client[27] 	avg_time[27] 	0.004077247364
scalar tree_4_3_u02_r6_network.client[28] 	hdistance[28] 	2.6609214730116
scalar tree_4_3_u02_r6_network.client[28] 	downloads[28] 	11894
scalar tree_4_3_u02_r6_network.client[28] 	avg_time[28] 	0.004076312847
scalar tree_4_3_u02_r6_network.client[29] 	hdistance[29] 	2.6573284954856
scalar tree_4_3_u02_r6_network.client[29] 	downloads[29] 	11851
scalar tree_4_3_u02_r6_network.client[29] 	avg_time[29] 	0.004077965151
scalar tree_4_3_u02_r6_network.client[30] 	hdistance[30] 	2.6674127497306
scalar tree_4_3_u02_r6_network.client[30] 	downloads[30] 	12063
scalar tree_4_3_u02_r6_network.client[30] 	avg_time[30] 	0.00409615882
scalar tree_4_3_u02_r6_network.client[31] 	hdistance[31] 	2.6667500834167
scalar tree_4_3_u02_r6_network.client[31] 	downloads[31] 	11988
scalar tree_4_3_u02_r6_network.client[31] 	avg_time[31] 	0.004105620582
scalar tree_4_3_u02_r6_network.client[32] 	hdistance[32] 	2.6401421252686
scalar tree_4_3_u02_r6_network.client[32] 	downloads[32] 	12102
scalar tree_4_3_u02_r6_network.client[32] 	avg_time[32] 	0.004064342013
scalar tree_4_3_u02_r6_network.client[33] 	hdistance[33] 	2.6056516237874
scalar tree_4_3_u02_r6_network.client[33] 	downloads[33] 	11855
scalar tree_4_3_u02_r6_network.client[33] 	avg_time[33] 	0.004003539849
scalar tree_4_3_u02_r6_network.client[34] 	hdistance[34] 	2.6359850062474
scalar tree_4_3_u02_r6_network.client[34] 	downloads[34] 	12005
scalar tree_4_3_u02_r6_network.client[34] 	avg_time[34] 	0.0040618046
scalar tree_4_3_u02_r6_network.client[35] 	hdistance[35] 	2.653875157101
scalar tree_4_3_u02_r6_network.client[35] 	downloads[35] 	11935
scalar tree_4_3_u02_r6_network.client[35] 	avg_time[35] 	0.004093000785
scalar tree_4_3_u02_r6_network.client[36] 	hdistance[36] 	2.6027329192547
scalar tree_4_3_u02_r6_network.client[36] 	downloads[36] 	12075
scalar tree_4_3_u02_r6_network.client[36] 	avg_time[36] 	0.003999831372
scalar tree_4_3_u02_r6_network.client[37] 	hdistance[37] 	2.6270315091211
scalar tree_4_3_u02_r6_network.client[37] 	downloads[37] 	12060
scalar tree_4_3_u02_r6_network.client[37] 	avg_time[37] 	0.004038139618
scalar tree_4_3_u02_r6_network.client[38] 	hdistance[38] 	2.6591064120055
scalar tree_4_3_u02_r6_network.client[38] 	downloads[38] 	11728
scalar tree_4_3_u02_r6_network.client[38] 	avg_time[38] 	0.004091402225
scalar tree_4_3_u02_r6_network.client[39] 	hdistance[39] 	2.658998422058
scalar tree_4_3_u02_r6_network.client[39] 	downloads[39] 	12041
scalar tree_4_3_u02_r6_network.client[39] 	avg_time[39] 	0.004095337922
