version 2
run General-122-20160831-21:57:16-8710
attr a 0.9
attr cd tfc
attr configname General
attr cr lru
attr datetime 20160831-21:57:16
attr experiment General
attr fsize 1
attr inifile hw5115/scenario_Y/omnetp.ini
attr iterationvars "$name=tree_4_3, $un=02, $rep=1, $cd=tfc, $cr=lru, $fsize=1, $a=0.9, $sl=nrr, $ttl=1000, $variance=0.05"
attr iterationvars2 "$name=tree_4_3, $un=02, $rep=1, $cd=tfc, $cr=lru, $fsize=1, $a=0.9, $sl=nrr, $ttl=1000, $variance=0.05, $repetition=0"
attr measurement "$name=tree_4_3, $un=02, $rep=1, $cd=tfc, $cr=lru, $fsize=1, $a=0.9, $sl=nrr, $ttl=1000, $variance=0.05"
attr name tree_4_3
attr network networks.${name}_u${un}_r${rep}_network
attr processid 8710
attr rep 1
attr repetition 0
attr replication #0
attr resultdir results
attr runnumber 122
attr seedset 1
attr sl nrr
attr ttl 1000
attr un 02
attr variance 0.05

scalar . 	a 	0.9
scalar . 	fsize 	1
scalar . 	rep 	1
scalar . 	ttl 	1000
scalar . 	un 	02
scalar . 	variance 	0.05
scalar tree_4_3_u02_r1_network.content_distribution 	repo-0 	0
scalar tree_4_3_u02_r1_network.content_distribution 	client-0 	13
scalar tree_4_3_u02_r1_network.content_distribution 	client-1 	14
scalar tree_4_3_u02_r1_network.content_distribution 	client-2 	15
scalar tree_4_3_u02_r1_network.content_distribution 	client-3 	16
scalar tree_4_3_u02_r1_network.content_distribution 	client-4 	17
scalar tree_4_3_u02_r1_network.content_distribution 	client-5 	18
scalar tree_4_3_u02_r1_network.content_distribution 	client-6 	19
scalar tree_4_3_u02_r1_network.content_distribution 	client-7 	20
scalar tree_4_3_u02_r1_network.content_distribution 	client-8 	21
scalar tree_4_3_u02_r1_network.content_distribution 	client-9 	22
scalar tree_4_3_u02_r1_network.content_distribution 	client-10 	23
scalar tree_4_3_u02_r1_network.content_distribution 	client-11 	24
scalar tree_4_3_u02_r1_network.content_distribution 	client-12 	25
scalar tree_4_3_u02_r1_network.content_distribution 	client-13 	26
scalar tree_4_3_u02_r1_network.content_distribution 	client-14 	27
scalar tree_4_3_u02_r1_network.content_distribution 	client-15 	28
scalar tree_4_3_u02_r1_network.content_distribution 	client-16 	29
scalar tree_4_3_u02_r1_network.content_distribution 	client-17 	30
scalar tree_4_3_u02_r1_network.content_distribution 	client-18 	31
scalar tree_4_3_u02_r1_network.content_distribution 	client-19 	32
scalar tree_4_3_u02_r1_network.content_distribution 	client-20 	33
scalar tree_4_3_u02_r1_network.content_distribution 	client-21 	34
scalar tree_4_3_u02_r1_network.content_distribution 	client-22 	35
scalar tree_4_3_u02_r1_network.content_distribution 	client-23 	36
scalar tree_4_3_u02_r1_network.content_distribution 	client-24 	37
scalar tree_4_3_u02_r1_network.content_distribution 	client-25 	38
scalar tree_4_3_u02_r1_network.content_distribution 	client-26 	39
scalar tree_4_3_u02_r1_network.content_distribution 	repo-0_card 	100000
scalar tree_4_3_u02_r1_network.content_distribution 	repo-0_price 	0
scalar tree_4_3_u02_r1_network.statistics 	stabilization_time 	1636.5
scalar tree_4_3_u02_r1_network.statistics 	p_hit 	0.22010666258406
scalar tree_4_3_u02_r1_network.statistics 	interests 	24573.625
scalar tree_4_3_u02_r1_network.statistics 	data 	16485.45
scalar tree_4_3_u02_r1_network.statistics 	hdistance 	2.6462787059168
scalar tree_4_3_u02_r1_network.statistics 	avg_time 	0.004076444486
scalar tree_4_3_u02_r1_network.statistics 	downloads 	323529
scalar tree_4_3_u02_r1_network.statistics 	total_cost 	0
scalar tree_4_3_u02_r1_network.statistics 	total_replicas 	100000
scalar tree_4_3_u02_r1_network.statistics 	inner_hit 	0.39198340797888
scalar tree_4_3_u02_r1_network.node[0].core_layer 	interests[0] 	200544
scalar tree_4_3_u02_r1_network.node[0].core_layer 	repo_load[0] 	196711
scalar tree_4_3_u02_r1_network.node[0].core_layer 	data[0] 	0
scalar tree_4_3_u02_r1_network.node[0].core_layer 	repo_int[0] 	196711
scalar tree_4_3_u02_r1_network.node[0].content_store 	p_hit[0] 	0.019113012605712
scalar tree_4_3_u02_r1_network.node[0].content_store 	hits[0] 	3833
scalar tree_4_3_u02_r1_network.node[0].content_store 	misses[0] 	196711
scalar tree_4_3_u02_r1_network.node[0].content_store 	decision_yes[0] 	1058
scalar tree_4_3_u02_r1_network.node[0].content_store 	decision_no[0] 	195653
scalar tree_4_3_u02_r1_network.node[0].content_store 	decision_ratio[0] 	0.0053784485870134
scalar tree_4_3_u02_r1_network.node[1].core_layer 	interests[1] 	101822
scalar tree_4_3_u02_r1_network.node[1].core_layer 	data[1] 	98807
scalar tree_4_3_u02_r1_network.node[1].content_store 	p_hit[1] 	0.029590854628666
scalar tree_4_3_u02_r1_network.node[1].content_store 	hits[1] 	3013
scalar tree_4_3_u02_r1_network.node[1].content_store 	misses[1] 	98809
scalar tree_4_3_u02_r1_network.node[1].content_store 	decision_yes[1] 	115
scalar tree_4_3_u02_r1_network.node[1].content_store 	decision_no[1] 	98692
scalar tree_4_3_u02_r1_network.node[1].content_store 	decision_ratio[1] 	0.0011638851498376
scalar tree_4_3_u02_r1_network.node[2].core_layer 	interests[2] 	86943
scalar tree_4_3_u02_r1_network.node[2].core_layer 	data[2] 	84211
scalar tree_4_3_u02_r1_network.node[2].content_store 	p_hit[2] 	0.031411384470285
scalar tree_4_3_u02_r1_network.node[2].content_store 	hits[2] 	2731
scalar tree_4_3_u02_r1_network.node[2].content_store 	misses[2] 	84212
scalar tree_4_3_u02_r1_network.node[2].content_store 	decision_yes[2] 	106
scalar tree_4_3_u02_r1_network.node[2].content_store 	decision_no[2] 	84105
scalar tree_4_3_u02_r1_network.node[2].content_store 	decision_ratio[2] 	0.0012587429195711
scalar tree_4_3_u02_r1_network.node[3].core_layer 	interests[3] 	25591
scalar tree_4_3_u02_r1_network.node[3].core_layer 	data[3] 	23598
scalar tree_4_3_u02_r1_network.node[3].content_store 	p_hit[3] 	0.077878941815482
scalar tree_4_3_u02_r1_network.node[3].content_store 	hits[3] 	1993
scalar tree_4_3_u02_r1_network.node[3].content_store 	misses[3] 	23598
scalar tree_4_3_u02_r1_network.node[3].content_store 	decision_yes[3] 	70
scalar tree_4_3_u02_r1_network.node[3].content_store 	decision_no[3] 	23528
scalar tree_4_3_u02_r1_network.node[3].content_store 	decision_ratio[3] 	0.0029663530807696
scalar tree_4_3_u02_r1_network.node[4].core_layer 	interests[4] 	26432
scalar tree_4_3_u02_r1_network.node[4].core_layer 	data[4] 	24593
scalar tree_4_3_u02_r1_network.node[4].content_store 	p_hit[4] 	0.069536924939467
scalar tree_4_3_u02_r1_network.node[4].content_store 	hits[4] 	1838
scalar tree_4_3_u02_r1_network.node[4].content_store 	misses[4] 	24594
scalar tree_4_3_u02_r1_network.node[4].content_store 	decision_yes[4] 	66
scalar tree_4_3_u02_r1_network.node[4].content_store 	decision_no[4] 	24527
scalar tree_4_3_u02_r1_network.node[4].content_store 	decision_ratio[4] 	0.0026836904810312
scalar tree_4_3_u02_r1_network.node[5].core_layer 	interests[5] 	34803
scalar tree_4_3_u02_r1_network.node[5].core_layer 	data[5] 	32532
scalar tree_4_3_u02_r1_network.node[5].content_store 	p_hit[5] 	0.065195529121053
scalar tree_4_3_u02_r1_network.node[5].content_store 	hits[5] 	2269
scalar tree_4_3_u02_r1_network.node[5].content_store 	misses[5] 	32534
scalar tree_4_3_u02_r1_network.node[5].content_store 	decision_yes[5] 	86
scalar tree_4_3_u02_r1_network.node[5].content_store 	decision_no[5] 	32446
scalar tree_4_3_u02_r1_network.node[5].content_store 	decision_ratio[5] 	0.0026435509652035
scalar tree_4_3_u02_r1_network.node[6].core_layer 	interests[6] 	18109
scalar tree_4_3_u02_r1_network.node[6].core_layer 	data[6] 	16392
scalar tree_4_3_u02_r1_network.node[6].content_store 	p_hit[6] 	0.094814733005688
scalar tree_4_3_u02_r1_network.node[6].content_store 	hits[6] 	1717
scalar tree_4_3_u02_r1_network.node[6].content_store 	misses[6] 	16392
scalar tree_4_3_u02_r1_network.node[6].content_store 	decision_yes[6] 	47
scalar tree_4_3_u02_r1_network.node[6].content_store 	decision_no[6] 	16345
scalar tree_4_3_u02_r1_network.node[6].content_store 	decision_ratio[6] 	0.002867252318204
scalar tree_4_3_u02_r1_network.node[7].core_layer 	interests[7] 	26408
scalar tree_4_3_u02_r1_network.node[7].core_layer 	data[7] 	24587
scalar tree_4_3_u02_r1_network.node[7].content_store 	p_hit[7] 	0.068956376855498
scalar tree_4_3_u02_r1_network.node[7].content_store 	hits[7] 	1821
scalar tree_4_3_u02_r1_network.node[7].content_store 	misses[7] 	24587
scalar tree_4_3_u02_r1_network.node[7].content_store 	decision_yes[7] 	43
scalar tree_4_3_u02_r1_network.node[7].content_store 	decision_no[7] 	24544
scalar tree_4_3_u02_r1_network.node[7].content_store 	decision_ratio[7] 	0.0017488916907309
scalar tree_4_3_u02_r1_network.node[8].core_layer 	interests[8] 	25731
scalar tree_4_3_u02_r1_network.node[8].core_layer 	data[8] 	23952
scalar tree_4_3_u02_r1_network.node[8].content_store 	p_hit[8] 	0.069138393377638
scalar tree_4_3_u02_r1_network.node[8].content_store 	hits[8] 	1779
scalar tree_4_3_u02_r1_network.node[8].content_store 	misses[8] 	23952
scalar tree_4_3_u02_r1_network.node[8].content_store 	decision_yes[8] 	44
scalar tree_4_3_u02_r1_network.node[8].content_store 	decision_no[8] 	23908
scalar tree_4_3_u02_r1_network.node[8].content_store 	decision_ratio[8] 	0.0018370073480294
scalar tree_4_3_u02_r1_network.node[9].core_layer 	interests[9] 	26851
scalar tree_4_3_u02_r1_network.node[9].core_layer 	data[9] 	24647
scalar tree_4_3_u02_r1_network.node[9].content_store 	p_hit[9] 	0.082082603999851
scalar tree_4_3_u02_r1_network.node[9].content_store 	hits[9] 	2204
scalar tree_4_3_u02_r1_network.node[9].content_store 	misses[9] 	24647
scalar tree_4_3_u02_r1_network.node[9].content_store 	decision_yes[9] 	69
scalar tree_4_3_u02_r1_network.node[9].content_store 	decision_no[9] 	24578
scalar tree_4_3_u02_r1_network.node[9].content_store 	decision_ratio[9] 	0.0027995293544853
scalar tree_4_3_u02_r1_network.node[10].core_layer 	interests[10] 	35150
scalar tree_4_3_u02_r1_network.node[10].core_layer 	data[10] 	32281
scalar tree_4_3_u02_r1_network.node[10].content_store 	p_hit[10] 	0.081593172119488
scalar tree_4_3_u02_r1_network.node[10].content_store 	hits[10] 	2868
scalar tree_4_3_u02_r1_network.node[10].content_store 	misses[10] 	32282
scalar tree_4_3_u02_r1_network.node[10].content_store 	decision_yes[10] 	104
scalar tree_4_3_u02_r1_network.node[10].content_store 	decision_no[10] 	32177
scalar tree_4_3_u02_r1_network.node[10].content_store 	decision_ratio[10] 	0.0032217093646417
scalar tree_4_3_u02_r1_network.node[11].core_layer 	interests[11] 	19146
scalar tree_4_3_u02_r1_network.node[11].core_layer 	data[11] 	16649
scalar tree_4_3_u02_r1_network.node[11].content_store 	p_hit[11] 	0.13041888645148
scalar tree_4_3_u02_r1_network.node[11].content_store 	hits[11] 	2497
scalar tree_4_3_u02_r1_network.node[11].content_store 	misses[11] 	16649
scalar tree_4_3_u02_r1_network.node[11].content_store 	decision_yes[11] 	86
scalar tree_4_3_u02_r1_network.node[11].content_store 	decision_no[11] 	16563
scalar tree_4_3_u02_r1_network.node[11].content_store 	decision_ratio[11] 	0.0051654754039282
scalar tree_4_3_u02_r1_network.node[12].core_layer 	interests[12] 	26093
scalar tree_4_3_u02_r1_network.node[12].core_layer 	data[12] 	24517
scalar tree_4_3_u02_r1_network.node[12].content_store 	p_hit[12] 	0.060399340819377
scalar tree_4_3_u02_r1_network.node[12].content_store 	hits[12] 	1576
scalar tree_4_3_u02_r1_network.node[12].content_store 	misses[12] 	24517
scalar tree_4_3_u02_r1_network.node[12].content_store 	decision_yes[12] 	73
scalar tree_4_3_u02_r1_network.node[12].content_store 	decision_no[12] 	24444
scalar tree_4_3_u02_r1_network.node[12].content_store 	decision_ratio[12] 	0.0029775257984256
scalar tree_4_3_u02_r1_network.node[13].core_layer 	interests[13] 	12207
scalar tree_4_3_u02_r1_network.node[13].core_layer 	data[13] 	8586
scalar tree_4_3_u02_r1_network.node[13].content_store 	p_hit[13] 	0.29663307938068
scalar tree_4_3_u02_r1_network.node[13].content_store 	hits[13] 	3621
scalar tree_4_3_u02_r1_network.node[13].content_store 	misses[13] 	8586
scalar tree_4_3_u02_r1_network.node[13].content_store 	decision_yes[13] 	22
scalar tree_4_3_u02_r1_network.node[13].content_store 	decision_no[13] 	8564
scalar tree_4_3_u02_r1_network.node[13].content_store 	decision_ratio[13] 	0.0025623107384114
scalar tree_4_3_u02_r1_network.node[14].core_layer 	interests[14] 	12362
scalar tree_4_3_u02_r1_network.node[14].core_layer 	data[14] 	8727
scalar tree_4_3_u02_r1_network.node[14].content_store 	p_hit[14] 	0.29396537777059
scalar tree_4_3_u02_r1_network.node[14].content_store 	hits[14] 	3634
scalar tree_4_3_u02_r1_network.node[14].content_store 	misses[14] 	8728
scalar tree_4_3_u02_r1_network.node[14].content_store 	decision_yes[14] 	25
scalar tree_4_3_u02_r1_network.node[14].content_store 	decision_no[14] 	8702
scalar tree_4_3_u02_r1_network.node[14].content_store 	decision_ratio[14] 	0.00286467285436
scalar tree_4_3_u02_r1_network.node[15].core_layer 	interests[15] 	12003
scalar tree_4_3_u02_r1_network.node[15].core_layer 	data[15] 	8538
scalar tree_4_3_u02_r1_network.node[15].content_store 	p_hit[15] 	0.28876114304757
scalar tree_4_3_u02_r1_network.node[15].content_store 	hits[15] 	3466
scalar tree_4_3_u02_r1_network.node[15].content_store 	misses[15] 	8537
scalar tree_4_3_u02_r1_network.node[15].content_store 	decision_yes[15] 	21
scalar tree_4_3_u02_r1_network.node[15].content_store 	decision_no[15] 	8517
scalar tree_4_3_u02_r1_network.node[15].content_store 	decision_ratio[15] 	0.0024595924104006
scalar tree_4_3_u02_r1_network.node[16].core_layer 	interests[16] 	12222
scalar tree_4_3_u02_r1_network.node[16].core_layer 	data[16] 	8613
scalar tree_4_3_u02_r1_network.node[16].content_store 	p_hit[16] 	0.29528718703976
scalar tree_4_3_u02_r1_network.node[16].content_store 	hits[16] 	3609
scalar tree_4_3_u02_r1_network.node[16].content_store 	misses[16] 	8613
scalar tree_4_3_u02_r1_network.node[16].content_store 	decision_yes[16] 	14
scalar tree_4_3_u02_r1_network.node[16].content_store 	decision_no[16] 	8599
scalar tree_4_3_u02_r1_network.node[16].content_store 	decision_ratio[16] 	0.001625449901312
scalar tree_4_3_u02_r1_network.node[17].core_layer 	interests[17] 	12303
scalar tree_4_3_u02_r1_network.node[17].core_layer 	data[17] 	8734
scalar tree_4_3_u02_r1_network.node[17].content_store 	p_hit[17] 	0.29009184751687
scalar tree_4_3_u02_r1_network.node[17].content_store 	hits[17] 	3569
scalar tree_4_3_u02_r1_network.node[17].content_store 	misses[17] 	8734
scalar tree_4_3_u02_r1_network.node[17].content_store 	decision_yes[17] 	20
scalar tree_4_3_u02_r1_network.node[17].content_store 	decision_no[17] 	8714
scalar tree_4_3_u02_r1_network.node[17].content_store 	decision_ratio[17] 	0.002289901534234
scalar tree_4_3_u02_r1_network.node[18].core_layer 	interests[18] 	12136
scalar tree_4_3_u02_r1_network.node[18].core_layer 	data[18] 	8673
scalar tree_4_3_u02_r1_network.node[18].content_store 	p_hit[18] 	0.28526697429136
scalar tree_4_3_u02_r1_network.node[18].content_store 	hits[18] 	3462
scalar tree_4_3_u02_r1_network.node[18].content_store 	misses[18] 	8674
scalar tree_4_3_u02_r1_network.node[18].content_store 	decision_yes[18] 	29
scalar tree_4_3_u02_r1_network.node[18].content_store 	decision_no[18] 	8644
scalar tree_4_3_u02_r1_network.node[18].content_store 	decision_ratio[18] 	0.0033437103655021
scalar tree_4_3_u02_r1_network.node[19].core_layer 	interests[19] 	12112
scalar tree_4_3_u02_r1_network.node[19].core_layer 	data[19] 	8623
scalar tree_4_3_u02_r1_network.node[19].content_store 	p_hit[19] 	0.28806142668428
scalar tree_4_3_u02_r1_network.node[19].content_store 	hits[19] 	3489
scalar tree_4_3_u02_r1_network.node[19].content_store 	misses[19] 	8623
scalar tree_4_3_u02_r1_network.node[19].content_store 	decision_yes[19] 	23
scalar tree_4_3_u02_r1_network.node[19].content_store 	decision_no[19] 	8600
scalar tree_4_3_u02_r1_network.node[19].content_store 	decision_ratio[19] 	0.0026672851675751
scalar tree_4_3_u02_r1_network.node[20].core_layer 	interests[20] 	12602
scalar tree_4_3_u02_r1_network.node[20].core_layer 	data[20] 	8597
scalar tree_4_3_u02_r1_network.node[20].content_store 	p_hit[20] 	0.31780669734963
scalar tree_4_3_u02_r1_network.node[20].content_store 	hits[20] 	4005
scalar tree_4_3_u02_r1_network.node[20].content_store 	misses[20] 	8597
scalar tree_4_3_u02_r1_network.node[20].content_store 	decision_yes[20] 	48
scalar tree_4_3_u02_r1_network.node[20].content_store 	decision_no[20] 	8549
scalar tree_4_3_u02_r1_network.node[20].content_store 	decision_ratio[20] 	0.0055833430266372
scalar tree_4_3_u02_r1_network.node[21].core_layer 	interests[21] 	12191
scalar tree_4_3_u02_r1_network.node[21].core_layer 	data[21] 	8597
scalar tree_4_3_u02_r1_network.node[21].content_store 	p_hit[21] 	0.294807644984
scalar tree_4_3_u02_r1_network.node[21].content_store 	hits[21] 	3594
scalar tree_4_3_u02_r1_network.node[21].content_store 	misses[21] 	8597
scalar tree_4_3_u02_r1_network.node[21].content_store 	decision_yes[21] 	27
scalar tree_4_3_u02_r1_network.node[21].content_store 	decision_no[21] 	8570
scalar tree_4_3_u02_r1_network.node[21].content_store 	decision_ratio[21] 	0.0031406304524834
scalar tree_4_3_u02_r1_network.node[22].core_layer 	interests[22] 	12147
scalar tree_4_3_u02_r1_network.node[22].core_layer 	data[22] 	8578
scalar tree_4_3_u02_r1_network.node[22].content_store 	p_hit[22] 	0.29389972832798
scalar tree_4_3_u02_r1_network.node[22].content_store 	hits[22] 	3570
scalar tree_4_3_u02_r1_network.node[22].content_store 	misses[22] 	8577
scalar tree_4_3_u02_r1_network.node[22].content_store 	decision_yes[22] 	16
scalar tree_4_3_u02_r1_network.node[22].content_store 	decision_no[22] 	8562
scalar tree_4_3_u02_r1_network.node[22].content_store 	decision_ratio[22] 	0.0018652366519002
scalar tree_4_3_u02_r1_network.node[23].core_layer 	interests[23] 	12182
scalar tree_4_3_u02_r1_network.node[23].core_layer 	data[23] 	8607
scalar tree_4_3_u02_r1_network.node[23].content_store 	p_hit[23] 	0.29346576916762
scalar tree_4_3_u02_r1_network.node[23].content_store 	hits[23] 	3575
scalar tree_4_3_u02_r1_network.node[23].content_store 	misses[23] 	8607
scalar tree_4_3_u02_r1_network.node[23].content_store 	decision_yes[23] 	26
scalar tree_4_3_u02_r1_network.node[23].content_store 	decision_no[23] 	8581
scalar tree_4_3_u02_r1_network.node[23].content_store 	decision_ratio[23] 	0.0030207970256768
scalar tree_4_3_u02_r1_network.node[24].core_layer 	interests[24] 	12227
scalar tree_4_3_u02_r1_network.node[24].core_layer 	data[24] 	8676
scalar tree_4_3_u02_r1_network.node[24].content_store 	p_hit[24] 	0.29042283471007
scalar tree_4_3_u02_r1_network.node[24].content_store 	hits[24] 	3551
scalar tree_4_3_u02_r1_network.node[24].content_store 	misses[24] 	8676
scalar tree_4_3_u02_r1_network.node[24].content_store 	decision_yes[24] 	32
scalar tree_4_3_u02_r1_network.node[24].content_store 	decision_no[24] 	8644
scalar tree_4_3_u02_r1_network.node[24].content_store 	decision_ratio[24] 	0.0036883356385431
scalar tree_4_3_u02_r1_network.node[25].core_layer 	interests[25] 	12049
scalar tree_4_3_u02_r1_network.node[25].core_layer 	data[25] 	8548
scalar tree_4_3_u02_r1_network.node[25].content_store 	p_hit[25] 	0.29056353224334
scalar tree_4_3_u02_r1_network.node[25].content_store 	hits[25] 	3501
scalar tree_4_3_u02_r1_network.node[25].content_store 	misses[25] 	8548
scalar tree_4_3_u02_r1_network.node[25].content_store 	decision_yes[25] 	19
scalar tree_4_3_u02_r1_network.node[25].content_store 	decision_no[25] 	8529
scalar tree_4_3_u02_r1_network.node[25].content_store 	decision_ratio[25] 	0.0022227421619092
scalar tree_4_3_u02_r1_network.node[26].core_layer 	interests[26] 	12020
scalar tree_4_3_u02_r1_network.node[26].core_layer 	data[26] 	8561
scalar tree_4_3_u02_r1_network.node[26].content_store 	p_hit[26] 	0.28777038269551
scalar tree_4_3_u02_r1_network.node[26].content_store 	hits[26] 	3459
scalar tree_4_3_u02_r1_network.node[26].content_store 	misses[26] 	8561
scalar tree_4_3_u02_r1_network.node[26].content_store 	decision_yes[26] 	24
scalar tree_4_3_u02_r1_network.node[26].content_store 	decision_no[26] 	8537
scalar tree_4_3_u02_r1_network.node[26].content_store 	decision_ratio[26] 	0.0028034108164934
scalar tree_4_3_u02_r1_network.node[27].core_layer 	interests[27] 	12176
scalar tree_4_3_u02_r1_network.node[27].core_layer 	data[27] 	8483
scalar tree_4_3_u02_r1_network.node[27].content_store 	p_hit[27] 	0.30330157687254
scalar tree_4_3_u02_r1_network.node[27].content_store 	hits[27] 	3693
scalar tree_4_3_u02_r1_network.node[27].content_store 	misses[27] 	8483
scalar tree_4_3_u02_r1_network.node[27].content_store 	decision_yes[27] 	42
scalar tree_4_3_u02_r1_network.node[27].content_store 	decision_no[27] 	8441
scalar tree_4_3_u02_r1_network.node[27].content_store 	decision_ratio[27] 	0.0049510786278439
scalar tree_4_3_u02_r1_network.node[28].core_layer 	interests[28] 	12146
scalar tree_4_3_u02_r1_network.node[28].core_layer 	data[28] 	8632
scalar tree_4_3_u02_r1_network.node[28].content_store 	p_hit[28] 	0.28931335419068
scalar tree_4_3_u02_r1_network.node[28].content_store 	hits[28] 	3514
scalar tree_4_3_u02_r1_network.node[28].content_store 	misses[28] 	8632
scalar tree_4_3_u02_r1_network.node[28].content_store 	decision_yes[28] 	31
scalar tree_4_3_u02_r1_network.node[28].content_store 	decision_no[28] 	8601
scalar tree_4_3_u02_r1_network.node[28].content_store 	decision_ratio[28] 	0.0035912882298424
scalar tree_4_3_u02_r1_network.node[29].core_layer 	interests[29] 	12065
scalar tree_4_3_u02_r1_network.node[29].core_layer 	data[29] 	8563
scalar tree_4_3_u02_r1_network.node[29].content_store 	p_hit[29] 	0.29026108578533
scalar tree_4_3_u02_r1_network.node[29].content_store 	hits[29] 	3502
scalar tree_4_3_u02_r1_network.node[29].content_store 	misses[29] 	8563
scalar tree_4_3_u02_r1_network.node[29].content_store 	decision_yes[29] 	27
scalar tree_4_3_u02_r1_network.node[29].content_store 	decision_no[29] 	8536
scalar tree_4_3_u02_r1_network.node[29].content_store 	decision_ratio[29] 	0.0031531005488731
scalar tree_4_3_u02_r1_network.node[30].core_layer 	interests[30] 	12176
scalar tree_4_3_u02_r1_network.node[30].core_layer 	data[30] 	8680
scalar tree_4_3_u02_r1_network.node[30].content_store 	p_hit[30] 	0.28712220762155
scalar tree_4_3_u02_r1_network.node[30].content_store 	hits[30] 	3496
scalar tree_4_3_u02_r1_network.node[30].content_store 	misses[30] 	8680
scalar tree_4_3_u02_r1_network.node[30].content_store 	decision_yes[30] 	21
scalar tree_4_3_u02_r1_network.node[30].content_store 	decision_no[30] 	8659
scalar tree_4_3_u02_r1_network.node[30].content_store 	decision_ratio[30] 	0.0024193548387097
scalar tree_4_3_u02_r1_network.node[31].core_layer 	interests[31] 	12172
scalar tree_4_3_u02_r1_network.node[31].core_layer 	data[31] 	8668
scalar tree_4_3_u02_r1_network.node[31].content_store 	p_hit[31] 	0.28787380874137
scalar tree_4_3_u02_r1_network.node[31].content_store 	hits[31] 	3504
scalar tree_4_3_u02_r1_network.node[31].content_store 	misses[31] 	8668
scalar tree_4_3_u02_r1_network.node[31].content_store 	decision_yes[31] 	19
scalar tree_4_3_u02_r1_network.node[31].content_store 	decision_no[31] 	8649
scalar tree_4_3_u02_r1_network.node[31].content_store 	decision_ratio[31] 	0.0021919704660821
scalar tree_4_3_u02_r1_network.node[32].core_layer 	interests[32] 	12143
scalar tree_4_3_u02_r1_network.node[32].core_layer 	data[32] 	8482
scalar tree_4_3_u02_r1_network.node[32].content_store 	p_hit[32] 	0.30149057069917
scalar tree_4_3_u02_r1_network.node[32].content_store 	hits[32] 	3661
scalar tree_4_3_u02_r1_network.node[32].content_store 	misses[32] 	8482
scalar tree_4_3_u02_r1_network.node[32].content_store 	decision_yes[32] 	27
scalar tree_4_3_u02_r1_network.node[32].content_store 	decision_no[32] 	8455
scalar tree_4_3_u02_r1_network.node[32].content_store 	decision_ratio[32] 	0.0031832115067201
scalar tree_4_3_u02_r1_network.node[33].core_layer 	interests[33] 	12204
scalar tree_4_3_u02_r1_network.node[33].core_layer 	data[33] 	8641
scalar tree_4_3_u02_r1_network.node[33].content_store 	p_hit[33] 	0.29195345788266
scalar tree_4_3_u02_r1_network.node[33].content_store 	hits[33] 	3563
scalar tree_4_3_u02_r1_network.node[33].content_store 	misses[33] 	8641
scalar tree_4_3_u02_r1_network.node[33].content_store 	decision_yes[33] 	30
scalar tree_4_3_u02_r1_network.node[33].content_store 	decision_no[33] 	8611
scalar tree_4_3_u02_r1_network.node[33].content_store 	decision_ratio[33] 	0.0034718203911584
scalar tree_4_3_u02_r1_network.node[34].core_layer 	interests[34] 	12524
scalar tree_4_3_u02_r1_network.node[34].core_layer 	data[34] 	8685
scalar tree_4_3_u02_r1_network.node[34].content_store 	p_hit[34] 	0.30653145959757
scalar tree_4_3_u02_r1_network.node[34].content_store 	hits[34] 	3839
scalar tree_4_3_u02_r1_network.node[34].content_store 	misses[34] 	8685
scalar tree_4_3_u02_r1_network.node[34].content_store 	decision_yes[34] 	43
scalar tree_4_3_u02_r1_network.node[34].content_store 	decision_no[34] 	8642
scalar tree_4_3_u02_r1_network.node[34].content_store 	decision_ratio[34] 	0.004951065054692
scalar tree_4_3_u02_r1_network.node[35].core_layer 	interests[35] 	12168
scalar tree_4_3_u02_r1_network.node[35].core_layer 	data[35] 	8589
scalar tree_4_3_u02_r1_network.node[35].content_store 	p_hit[35] 	0.29413214990138
scalar tree_4_3_u02_r1_network.node[35].content_store 	hits[35] 	3579
scalar tree_4_3_u02_r1_network.node[35].content_store 	misses[35] 	8589
scalar tree_4_3_u02_r1_network.node[35].content_store 	decision_yes[35] 	24
scalar tree_4_3_u02_r1_network.node[35].content_store 	decision_no[35] 	8565
scalar tree_4_3_u02_r1_network.node[35].content_store 	decision_ratio[35] 	0.002794271742927
scalar tree_4_3_u02_r1_network.node[36].core_layer 	interests[36] 	12176
scalar tree_4_3_u02_r1_network.node[36].core_layer 	data[36] 	8624
scalar tree_4_3_u02_r1_network.node[36].content_store 	p_hit[36] 	0.29172141918528
scalar tree_4_3_u02_r1_network.node[36].content_store 	hits[36] 	3552
scalar tree_4_3_u02_r1_network.node[36].content_store 	misses[36] 	8624
scalar tree_4_3_u02_r1_network.node[36].content_store 	decision_yes[36] 	25
scalar tree_4_3_u02_r1_network.node[36].content_store 	decision_no[36] 	8599
scalar tree_4_3_u02_r1_network.node[36].content_store 	decision_ratio[36] 	0.0028988868274583
scalar tree_4_3_u02_r1_network.node[37].core_layer 	interests[37] 	12337
scalar tree_4_3_u02_r1_network.node[37].core_layer 	data[37] 	8741
scalar tree_4_3_u02_r1_network.node[37].content_store 	p_hit[37] 	0.29148091108049
scalar tree_4_3_u02_r1_network.node[37].content_store 	hits[37] 	3596
scalar tree_4_3_u02_r1_network.node[37].content_store 	misses[37] 	8741
scalar tree_4_3_u02_r1_network.node[37].content_store 	decision_yes[37] 	31
scalar tree_4_3_u02_r1_network.node[37].content_store 	decision_no[37] 	8710
scalar tree_4_3_u02_r1_network.node[37].content_store 	decision_ratio[37] 	0.0035465049765473
scalar tree_4_3_u02_r1_network.node[38].core_layer 	interests[38] 	12096
scalar tree_4_3_u02_r1_network.node[38].core_layer 	data[38] 	8577
scalar tree_4_3_u02_r1_network.node[38].content_store 	p_hit[38] 	0.29083994708995
scalar tree_4_3_u02_r1_network.node[38].content_store 	hits[38] 	3518
scalar tree_4_3_u02_r1_network.node[38].content_store 	misses[38] 	8578
scalar tree_4_3_u02_r1_network.node[38].content_store 	decision_yes[38] 	38
scalar tree_4_3_u02_r1_network.node[38].content_store 	decision_no[38] 	8539
scalar tree_4_3_u02_r1_network.node[38].content_store 	decision_ratio[38] 	0.0044304535385333
scalar tree_4_3_u02_r1_network.node[39].core_layer 	interests[39] 	12176
scalar tree_4_3_u02_r1_network.node[39].core_layer 	data[39] 	8629
scalar tree_4_3_u02_r1_network.node[39].content_store 	p_hit[39] 	0.29131077529566
scalar tree_4_3_u02_r1_network.node[39].content_store 	hits[39] 	3547
scalar tree_4_3_u02_r1_network.node[39].content_store 	misses[39] 	8629
scalar tree_4_3_u02_r1_network.node[39].content_store 	decision_yes[39] 	26
scalar tree_4_3_u02_r1_network.node[39].content_store 	decision_no[39] 	8603
scalar tree_4_3_u02_r1_network.node[39].content_store 	decision_ratio[39] 	0.0030130953760575
scalar tree_4_3_u02_r1_network.client[13] 	hdistance[13] 	2.6347096452605
scalar tree_4_3_u02_r1_network.client[13] 	downloads[13] 	12037
scalar tree_4_3_u02_r1_network.client[13] 	avg_time[13] 	0.004064881388
scalar tree_4_3_u02_r1_network.client[14] 	hdistance[14] 	2.6581653640477
scalar tree_4_3_u02_r1_network.client[14] 	downloads[14] 	12155
scalar tree_4_3_u02_r1_network.client[14] 	avg_time[14] 	0.004094772776
scalar tree_4_3_u02_r1_network.client[15] 	hdistance[15] 	2.6664410221696
scalar tree_4_3_u02_r1_network.client[15] 	downloads[15] 	11818
scalar tree_4_3_u02_r1_network.client[15] 	avg_time[15] 	0.004115887928
scalar tree_4_3_u02_r1_network.client[16] 	hdistance[16] 	2.648709408826
scalar tree_4_3_u02_r1_network.client[16] 	downloads[16] 	12010
scalar tree_4_3_u02_r1_network.client[16] 	avg_time[16] 	0.004074870477
scalar tree_4_3_u02_r1_network.client[17] 	hdistance[17] 	2.6592880151978
scalar tree_4_3_u02_r1_network.client[17] 	downloads[17] 	12107
scalar tree_4_3_u02_r1_network.client[17] 	avg_time[17] 	0.004093736109
scalar tree_4_3_u02_r1_network.client[18] 	hdistance[18] 	2.6823174310388
scalar tree_4_3_u02_r1_network.client[18] 	downloads[18] 	11927
scalar tree_4_3_u02_r1_network.client[18] 	avg_time[18] 	0.004131616589
scalar tree_4_3_u02_r1_network.client[19] 	hdistance[19] 	2.6489096054603
scalar tree_4_3_u02_r1_network.client[19] 	downloads[19] 	12014
scalar tree_4_3_u02_r1_network.client[19] 	avg_time[19] 	0.004085563845
scalar tree_4_3_u02_r1_network.client[20] 	hdistance[20] 	2.5770950645909
scalar tree_4_3_u02_r1_network.client[20] 	downloads[20] 	12076
scalar tree_4_3_u02_r1_network.client[20] 	avg_time[20] 	0.003961739287
scalar tree_4_3_u02_r1_network.client[21] 	hdistance[21] 	2.6350165562914
scalar tree_4_3_u02_r1_network.client[21] 	downloads[21] 	12080
scalar tree_4_3_u02_r1_network.client[21] 	avg_time[21] 	0.004059434086
scalar tree_4_3_u02_r1_network.client[22] 	hdistance[22] 	2.6614377988424
scalar tree_4_3_u02_r1_network.client[22] 	downloads[22] 	11921
scalar tree_4_3_u02_r1_network.client[22] 	avg_time[22] 	0.004098143166
scalar tree_4_3_u02_r1_network.client[23] 	hdistance[23] 	2.6703691331218
scalar tree_4_3_u02_r1_network.client[23] 	downloads[23] 	11974
scalar tree_4_3_u02_r1_network.client[23] 	avg_time[23] 	0.004112073183
scalar tree_4_3_u02_r1_network.client[24] 	hdistance[24] 	2.6548181290911
scalar tree_4_3_u02_r1_network.client[24] 	downloads[24] 	12069
scalar tree_4_3_u02_r1_network.client[24] 	avg_time[24] 	0.004090614783
scalar tree_4_3_u02_r1_network.client[25] 	hdistance[25] 	2.6528558248763
scalar tree_4_3_u02_r1_network.client[25] 	downloads[25] 	11923
scalar tree_4_3_u02_r1_network.client[25] 	avg_time[25] 	0.004084036282
scalar tree_4_3_u02_r1_network.client[26] 	hdistance[26] 	2.6726340561439
scalar tree_4_3_u02_r1_network.client[26] 	downloads[26] 	11898
scalar tree_4_3_u02_r1_network.client[26] 	avg_time[26] 	0.004108250495
scalar tree_4_3_u02_r1_network.client[27] 	hdistance[27] 	2.6206311503224
scalar tree_4_3_u02_r1_network.client[27] 	downloads[27] 	11788
scalar tree_4_3_u02_r1_network.client[27] 	avg_time[27] 	0.004021342676
scalar tree_4_3_u02_r1_network.client[28] 	hdistance[28] 	2.6613937224211
scalar tree_4_3_u02_r1_network.client[28] 	downloads[28] 	12011
scalar tree_4_3_u02_r1_network.client[28] 	avg_time[28] 	0.004095409543
scalar tree_4_3_u02_r1_network.client[29] 	hdistance[29] 	2.6583662824935
scalar tree_4_3_u02_r1_network.client[29] 	downloads[29] 	11887
scalar tree_4_3_u02_r1_network.client[29] 	avg_time[29] 	0.004091178163
scalar tree_4_3_u02_r1_network.client[30] 	hdistance[30] 	2.6704356501496
scalar tree_4_3_u02_r1_network.client[30] 	downloads[30] 	12028
scalar tree_4_3_u02_r1_network.client[30] 	avg_time[30] 	0.004109408392
scalar tree_4_3_u02_r1_network.client[31] 	hdistance[31] 	2.6693819281156
scalar tree_4_3_u02_r1_network.client[31] 	downloads[31] 	11908
scalar tree_4_3_u02_r1_network.client[31] 	avg_time[31] 	0.004119244589
scalar tree_4_3_u02_r1_network.client[32] 	hdistance[32] 	2.6157535975764
scalar tree_4_3_u02_r1_network.client[32] 	downloads[32] 	11883
scalar tree_4_3_u02_r1_network.client[32] 	avg_time[32] 	0.004035710728
scalar tree_4_3_u02_r1_network.client[33] 	hdistance[33] 	2.6373065662903
scalar tree_4_3_u02_r1_network.client[33] 	downloads[33] 	11955
scalar tree_4_3_u02_r1_network.client[33] 	avg_time[33] 	0.00407159885
scalar tree_4_3_u02_r1_network.client[34] 	hdistance[34] 	2.5912128299365
scalar tree_4_3_u02_r1_network.client[34] 	downloads[34] 	11972
scalar tree_4_3_u02_r1_network.client[34] 	avg_time[34] 	0.003999495886
scalar tree_4_3_u02_r1_network.client[35] 	hdistance[35] 	2.6258758758759
scalar tree_4_3_u02_r1_network.client[35] 	downloads[35] 	11988
scalar tree_4_3_u02_r1_network.client[35] 	avg_time[35] 	0.004047544528
scalar tree_4_3_u02_r1_network.client[36] 	hdistance[36] 	2.6195751770096
scalar tree_4_3_u02_r1_network.client[36] 	downloads[36] 	12005
scalar tree_4_3_u02_r1_network.client[36] 	avg_time[36] 	0.004049143201
scalar tree_4_3_u02_r1_network.client[37] 	hdistance[37] 	2.664056059357
scalar tree_4_3_u02_r1_network.client[37] 	downloads[37] 	12130
scalar tree_4_3_u02_r1_network.client[37] 	avg_time[37] 	0.004098100876
scalar tree_4_3_u02_r1_network.client[38] 	hdistance[38] 	2.6392304475115
scalar tree_4_3_u02_r1_network.client[38] 	downloads[38] 	11955
scalar tree_4_3_u02_r1_network.client[38] 	avg_time[38] 	0.004065943221
scalar tree_4_3_u02_r1_network.client[39] 	hdistance[39] 	2.6535387177352
scalar tree_4_3_u02_r1_network.client[39] 	downloads[39] 	12010
scalar tree_4_3_u02_r1_network.client[39] 	avg_time[39] 	0.004084260083
