version 2
run General-51-20160823-13:13:46-12979
attr D tfc
attr F nrr
attr R lru
attr a 1
attr configname General
attr datetime 20160823-13:13:46
attr experiment General
attr inifile hw5115/scenario_B/bus.ini
attr iterationvars "$net=bus, $rep=0, $a=1, $F=nrr, $D=tfc, $R=lru, $window=60, $variance=0.05, $mytime=600, $test=test"
attr iterationvars2 "$net=bus, $rep=0, $a=1, $F=nrr, $D=tfc, $R=lru, $window=60, $variance=0.05, $mytime=600, $test=test, $repetition=0"
attr measurement "$net=bus, $rep=0, $a=1, $F=nrr, $D=tfc, $R=lru, $window=60, $variance=0.05, $mytime=600, $test=test"
attr mytime 600
attr net bus
attr network networks.${net=bus}_network
attr processid 12979
attr rep 0
attr repetition 0
attr replication #0
attr resultdir results
attr runnumber 51
attr seedset 0
attr test test
attr variance 0.05
attr window 60

scalar . 	a 	1
scalar . 	mytime 	600
scalar . 	rep 	0
scalar . 	variance 	0.05
scalar . 	window 	60
scalar bus_network.content_distribution 	repo-0 	9
scalar bus_network.content_distribution 	client-0 	5
scalar bus_network.content_distribution 	client-1 	8
scalar bus_network.content_distribution 	client-2 	9
scalar bus_network.content_distribution 	client-3 	0
scalar bus_network.content_distribution 	client-4 	1
scalar bus_network.content_distribution 	client-5 	7
scalar bus_network.content_distribution 	client-6 	6
scalar bus_network.content_distribution 	client-7 	2
scalar bus_network.content_distribution 	client-8 	4
scalar bus_network.content_distribution 	client-9 	3
scalar bus_network.content_distribution 	repo-0_card 	100000
scalar bus_network.content_distribution 	repo-0_price 	0
scalar bus_network.statistics 	stabilization_time 	1473
scalar bus_network.statistics 	p_hit 	0.18647142372047
scalar bus_network.statistics 	interests 	40930.9
scalar bus_network.statistics 	data 	28874.5
scalar bus_network.statistics 	hdistance 	2.9026965663337
scalar bus_network.statistics 	avg_time 	0.004795387957
scalar bus_network.statistics 	downloads 	120571
scalar bus_network.statistics 	total_cost 	0
scalar bus_network.statistics 	total_replicas 	100000
scalar bus_network.statistics 	inner_hit 	0.49519370329515
scalar bus_network.node[0].core_layer 	interests[0] 	12159
scalar bus_network.node[0].core_layer 	data[0] 	6823
scalar bus_network.node[0].core_layer 	repo_int[0] 	60865
scalar bus_network.node[0].content_store 	p_hit[0] 	0.43893412287195
scalar bus_network.node[0].content_store 	hits[0] 	5337
scalar bus_network.node[0].content_store 	misses[0] 	6822
scalar bus_network.node[0].content_store 	decision_yes[0] 	39
scalar bus_network.node[0].content_store 	decision_no[0] 	6784
scalar bus_network.node[0].content_store 	decision_ratio[0] 	0.0057159607210904
scalar bus_network.node[1].core_layer 	interests[1] 	19306
scalar bus_network.node[1].core_layer 	data[1] 	13619
scalar bus_network.node[1].content_store 	p_hit[1] 	0.2946234331296
scalar bus_network.node[1].content_store 	hits[1] 	5688
scalar bus_network.node[1].content_store 	misses[1] 	13618
scalar bus_network.node[1].content_store 	decision_yes[1] 	68
scalar bus_network.node[1].content_store 	decision_no[1] 	13551
scalar bus_network.node[1].content_store 	decision_ratio[1] 	0.0049930244511344
scalar bus_network.node[2].core_layer 	interests[2] 	26099
scalar bus_network.node[2].core_layer 	data[2] 	20115
scalar bus_network.node[2].content_store 	p_hit[2] 	0.22931913100119
scalar bus_network.node[2].content_store 	hits[2] 	5985
scalar bus_network.node[2].content_store 	misses[2] 	20114
scalar bus_network.node[2].content_store 	decision_yes[2] 	62
scalar bus_network.node[2].content_store 	decision_no[2] 	20053
scalar bus_network.node[2].content_store 	decision_ratio[2] 	0.0030822769077803
scalar bus_network.node[3].core_layer 	interests[3] 	32700
scalar bus_network.node[3].core_layer 	data[3] 	26672
scalar bus_network.node[3].content_store 	p_hit[3] 	0.18437308868502
scalar bus_network.node[3].content_store 	hits[3] 	6029
scalar bus_network.node[3].content_store 	misses[3] 	26671
scalar bus_network.node[3].content_store 	decision_yes[3] 	97
scalar bus_network.node[3].content_store 	decision_no[3] 	26575
scalar bus_network.node[3].content_store 	decision_ratio[3] 	0.0036367726454709
scalar bus_network.node[4].core_layer 	interests[4] 	39282
scalar bus_network.node[4].core_layer 	data[4] 	32818
scalar bus_network.node[4].content_store 	p_hit[4] 	0.1645028257217
scalar bus_network.node[4].content_store 	hits[4] 	6462
scalar bus_network.node[4].content_store 	misses[4] 	32820
scalar bus_network.node[4].content_store 	decision_yes[4] 	87
scalar bus_network.node[4].content_store 	decision_no[4] 	32731
scalar bus_network.node[4].content_store 	decision_ratio[4] 	0.002650984215979
scalar bus_network.node[5].core_layer 	interests[5] 	44972
scalar bus_network.node[5].core_layer 	data[5] 	38806
scalar bus_network.node[5].content_store 	p_hit[5] 	0.13710753357645
scalar bus_network.node[5].content_store 	hits[5] 	6166
scalar bus_network.node[5].content_store 	misses[5] 	38806
scalar bus_network.node[5].content_store 	decision_yes[5] 	88
scalar bus_network.node[5].content_store 	decision_no[5] 	38718
scalar bus_network.node[5].content_store 	decision_ratio[5] 	0.002267690563315
scalar bus_network.node[6].core_layer 	interests[6] 	50936
scalar bus_network.node[6].core_layer 	data[6] 	44603
scalar bus_network.node[6].content_store 	p_hit[6] 	0.12435212816083
scalar bus_network.node[6].content_store 	hits[6] 	6334
scalar bus_network.node[6].content_store 	misses[6] 	44602
scalar bus_network.node[6].content_store 	decision_yes[6] 	88
scalar bus_network.node[6].content_store 	decision_no[6] 	44515
scalar bus_network.node[6].content_store 	decision_ratio[6] 	0.0019729614599915
scalar bus_network.node[7].core_layer 	interests[7] 	56620
scalar bus_network.node[7].core_layer 	data[7] 	50089
scalar bus_network.node[7].content_store 	p_hit[7] 	0.11534793359237
scalar bus_network.node[7].content_store 	hits[7] 	6531
scalar bus_network.node[7].content_store 	misses[7] 	50089
scalar bus_network.node[7].content_store 	decision_yes[7] 	104
scalar bus_network.node[7].content_store 	decision_no[7] 	49985
scalar bus_network.node[7].content_store 	decision_ratio[7] 	0.0020763041785622
scalar bus_network.node[8].core_layer 	interests[8] 	60997
scalar bus_network.node[8].core_layer 	data[8] 	55200
scalar bus_network.node[8].content_store 	p_hit[8] 	0.095037460858731
scalar bus_network.node[8].content_store 	hits[8] 	5797
scalar bus_network.node[8].content_store 	misses[8] 	55200
scalar bus_network.node[8].content_store 	decision_yes[8] 	96
scalar bus_network.node[8].content_store 	decision_no[8] 	55104
scalar bus_network.node[8].content_store 	decision_ratio[8] 	0.0017391304347826
scalar bus_network.node[9].core_layer 	interests[9] 	66238
scalar bus_network.node[9].core_layer 	repo_load[9] 	60865
scalar bus_network.node[9].core_layer 	data[9] 	0
scalar bus_network.node[9].content_store 	p_hit[9] 	0.081116579606872
scalar bus_network.node[9].content_store 	hits[9] 	5373
scalar bus_network.node[9].content_store 	misses[9] 	60865
scalar bus_network.node[9].content_store 	decision_yes[9] 	669
scalar bus_network.node[9].content_store 	decision_no[9] 	60196
scalar bus_network.node[9].content_store 	decision_ratio[9] 	0.010991538651113
scalar bus_network.client[0] 	hdistance[0] 	5.2301633850021
scalar bus_network.client[0] 	downloads[0] 	11935
scalar bus_network.client[0] 	avg_time[0] 	0.00950196603
scalar bus_network.client[1] 	hdistance[1] 	4.662833029952
scalar bus_network.client[1] 	downloads[1] 	12086
scalar bus_network.client[1] 	avg_time[1] 	0.008369184457
scalar bus_network.client[2] 	hdistance[2] 	4.1407666084643
scalar bus_network.client[2] 	downloads[2] 	12027
scalar bus_network.client[2] 	avg_time[2] 	0.007321969713
scalar bus_network.client[3] 	hdistance[3] 	3.658605267517
scalar bus_network.client[3] 	downloads[3] 	12074
scalar bus_network.client[3] 	avg_time[3] 	0.006346611875
scalar bus_network.client[4] 	hdistance[4] 	3.0918999256874
scalar bus_network.client[4] 	downloads[4] 	12111
scalar bus_network.client[4] 	avg_time[4] 	0.005229061513
scalar bus_network.client[5] 	hdistance[5] 	2.5905781942934
scalar bus_network.client[5] 	downloads[5] 	11951
scalar bus_network.client[5] 	avg_time[5] 	0.004231274732
scalar bus_network.client[6] 	hdistance[6] 	2.1494015683038
scalar bus_network.client[6] 	downloads[6] 	12115
scalar bus_network.client[6] 	avg_time[6] 	0.003326781943
scalar bus_network.client[7] 	hdistance[7] 	1.6516309259716
scalar bus_network.client[7] 	downloads[7] 	12171
scalar bus_network.client[7] 	avg_time[7] 	0.002323388617
scalar bus_network.client[8] 	hdistance[8] 	1.177724531108
scalar bus_network.client[8] 	downloads[8] 	12103
scalar bus_network.client[8] 	avg_time[8] 	0.001303640697
scalar bus_network.client[9] 	hdistance[9] 	0.67336222703784
scalar bus_network.client[9] 	downloads[9] 	11998
scalar bus_network.client[9] 	avg_time[9] 	0
