version 2
run General-120-20160819-12:42:52-2054
attr a 0.9
attr cd lcd
attr configname General
attr cr lru
attr datetime 20160819-12:42:52
attr experiment General
attr fsize 1
attr inifile hw5115/scenario_A/NRR-LCD.ini
attr iterationvars "$name=tree_4_3, $un=06, $rep=1, $cd=lcd, $cr=lru, $fsize=1, $a=0.9, $sl=nrr, $ttl=1000, $variance=0.05"
attr iterationvars2 "$name=tree_4_3, $un=06, $rep=1, $cd=lcd, $cr=lru, $fsize=1, $a=0.9, $sl=nrr, $ttl=1000, $variance=0.05, $repetition=0"
attr measurement "$name=tree_4_3, $un=06, $rep=1, $cd=lcd, $cr=lru, $fsize=1, $a=0.9, $sl=nrr, $ttl=1000, $variance=0.05"
attr name tree_4_3
attr network networks.${name}_u${un}_r${rep}_network
attr processid 2054
attr rep 1
attr repetition 0
attr replication #0
attr resultdir results
attr runnumber 120
attr seedset 1
attr sl nrr
attr ttl 1000
attr un 06
attr variance 0.05

scalar . 	a 	0.9
scalar . 	fsize 	1
scalar . 	rep 	1
scalar . 	ttl 	1000
scalar . 	un 	06
scalar . 	variance 	0.05
scalar tree_4_3_u06_r1_network.content_distribution 	repo-0 	0
scalar tree_4_3_u06_r1_network.content_distribution 	client-0 	13
scalar tree_4_3_u06_r1_network.content_distribution 	client-1 	14
scalar tree_4_3_u06_r1_network.content_distribution 	client-2 	15
scalar tree_4_3_u06_r1_network.content_distribution 	client-3 	16
scalar tree_4_3_u06_r1_network.content_distribution 	client-4 	17
scalar tree_4_3_u06_r1_network.content_distribution 	client-5 	18
scalar tree_4_3_u06_r1_network.content_distribution 	client-6 	19
scalar tree_4_3_u06_r1_network.content_distribution 	client-7 	20
scalar tree_4_3_u06_r1_network.content_distribution 	client-8 	21
scalar tree_4_3_u06_r1_network.content_distribution 	client-9 	22
scalar tree_4_3_u06_r1_network.content_distribution 	client-10 	23
scalar tree_4_3_u06_r1_network.content_distribution 	client-11 	24
scalar tree_4_3_u06_r1_network.content_distribution 	client-12 	25
scalar tree_4_3_u06_r1_network.content_distribution 	client-13 	26
scalar tree_4_3_u06_r1_network.content_distribution 	client-14 	27
scalar tree_4_3_u06_r1_network.content_distribution 	client-15 	28
scalar tree_4_3_u06_r1_network.content_distribution 	client-16 	29
scalar tree_4_3_u06_r1_network.content_distribution 	client-17 	30
scalar tree_4_3_u06_r1_network.content_distribution 	client-18 	31
scalar tree_4_3_u06_r1_network.content_distribution 	client-19 	32
scalar tree_4_3_u06_r1_network.content_distribution 	client-20 	33
scalar tree_4_3_u06_r1_network.content_distribution 	client-21 	34
scalar tree_4_3_u06_r1_network.content_distribution 	client-22 	35
scalar tree_4_3_u06_r1_network.content_distribution 	client-23 	36
scalar tree_4_3_u06_r1_network.content_distribution 	client-24 	37
scalar tree_4_3_u06_r1_network.content_distribution 	client-25 	38
scalar tree_4_3_u06_r1_network.content_distribution 	client-26 	39
scalar tree_4_3_u06_r1_network.content_distribution 	repo-0_card 	100000
scalar tree_4_3_u06_r1_network.content_distribution 	repo-0_price 	0
scalar tree_4_3_u06_r1_network.statistics 	stabilization_time 	888
scalar tree_4_3_u06_r1_network.statistics 	p_hit 	0.21661689928585
scalar tree_4_3_u06_r1_network.statistics 	interests 	24893.875
scalar tree_4_3_u06_r1_network.statistics 	data 	16793.45
scalar tree_4_3_u06_r1_network.statistics 	hdistance 	2.6962789387779
scalar tree_4_3_u06_r1_network.statistics 	avg_time 	0.00414644661
scalar tree_4_3_u06_r1_network.statistics 	downloads 	324014
scalar tree_4_3_u06_r1_network.statistics 	total_cost 	0
scalar tree_4_3_u06_r1_network.statistics 	total_replicas 	100000
scalar tree_4_3_u06_r1_network.statistics 	inner_hit 	0.37695593400285
scalar tree_4_3_u06_r1_network.node[0].core_layer 	interests[0] 	203193
scalar tree_4_3_u06_r1_network.node[0].core_layer 	repo_load[0] 	201875
scalar tree_4_3_u06_r1_network.node[0].core_layer 	data[0] 	0
scalar tree_4_3_u06_r1_network.node[0].core_layer 	repo_int[0] 	201875
scalar tree_4_3_u06_r1_network.node[0].content_store 	p_hit[0] 	0.0064864439227729
scalar tree_4_3_u06_r1_network.node[0].content_store 	hits[0] 	1318
scalar tree_4_3_u06_r1_network.node[0].content_store 	misses[0] 	201875
scalar tree_4_3_u06_r1_network.node[0].content_store 	decision_yes[0] 	201875
scalar tree_4_3_u06_r1_network.node[0].content_store 	decision_no[0] 	0
scalar tree_4_3_u06_r1_network.node[0].content_store 	decision_ratio[0] 	1
scalar tree_4_3_u06_r1_network.node[1].core_layer 	interests[1] 	100652
scalar tree_4_3_u06_r1_network.node[1].core_layer 	data[1] 	98807
scalar tree_4_3_u06_r1_network.node[1].content_store 	p_hit[1] 	0.018320550013909
scalar tree_4_3_u06_r1_network.node[1].content_store 	hits[1] 	1844
scalar tree_4_3_u06_r1_network.node[1].content_store 	misses[1] 	98808
scalar tree_4_3_u06_r1_network.node[1].content_store 	decision_yes[1] 	1781
scalar tree_4_3_u06_r1_network.node[1].content_store 	decision_no[1] 	97026
scalar tree_4_3_u06_r1_network.node[1].content_store 	decision_ratio[1] 	0.018025038711832
scalar tree_4_3_u06_r1_network.node[2].core_layer 	interests[2] 	70605
scalar tree_4_3_u06_r1_network.node[2].core_layer 	data[2] 	69289
scalar tree_4_3_u06_r1_network.node[2].content_store 	p_hit[2] 	0.018596416684371
scalar tree_4_3_u06_r1_network.node[2].content_store 	hits[2] 	1313
scalar tree_4_3_u06_r1_network.node[2].content_store 	misses[2] 	69292
scalar tree_4_3_u06_r1_network.node[2].content_store 	decision_yes[2] 	1150
scalar tree_4_3_u06_r1_network.node[2].content_store 	decision_no[2] 	68139
scalar tree_4_3_u06_r1_network.node[2].content_store 	decision_ratio[2] 	0.016597151062939
scalar tree_4_3_u06_r1_network.node[3].core_layer 	interests[3] 	43186
scalar tree_4_3_u06_r1_network.node[3].core_layer 	data[3] 	40392
scalar tree_4_3_u06_r1_network.node[3].content_store 	p_hit[3] 	0.064696892511462
scalar tree_4_3_u06_r1_network.node[3].content_store 	hits[3] 	2794
scalar tree_4_3_u06_r1_network.node[3].content_store 	misses[3] 	40392
scalar tree_4_3_u06_r1_network.node[3].content_store 	decision_yes[3] 	2421
scalar tree_4_3_u06_r1_network.node[3].content_store 	decision_no[3] 	37971
scalar tree_4_3_u06_r1_network.node[3].content_store 	decision_ratio[3] 	0.0599376114082
scalar tree_4_3_u06_r1_network.node[4].core_layer 	interests[4] 	42740
scalar tree_4_3_u06_r1_network.node[4].core_layer 	data[4] 	40628
scalar tree_4_3_u06_r1_network.node[4].content_store 	p_hit[4] 	0.049415067852129
scalar tree_4_3_u06_r1_network.node[4].content_store 	hits[4] 	2112
scalar tree_4_3_u06_r1_network.node[4].content_store 	misses[4] 	40628
scalar tree_4_3_u06_r1_network.node[4].content_store 	decision_yes[4] 	2242
scalar tree_4_3_u06_r1_network.node[4].content_store 	decision_no[4] 	38386
scalar tree_4_3_u06_r1_network.node[4].content_store 	decision_ratio[4] 	0.055183617209806
scalar tree_4_3_u06_r1_network.node[5].core_layer 	interests[5] 	26554
scalar tree_4_3_u06_r1_network.node[5].core_layer 	data[5] 	24529
scalar tree_4_3_u06_r1_network.node[5].content_store 	p_hit[5] 	0.076259697220758
scalar tree_4_3_u06_r1_network.node[5].content_store 	hits[5] 	2025
scalar tree_4_3_u06_r1_network.node[5].content_store 	misses[5] 	24529
scalar tree_4_3_u06_r1_network.node[5].content_store 	decision_yes[5] 	1706
scalar tree_4_3_u06_r1_network.node[5].content_store 	decision_no[5] 	22823
scalar tree_4_3_u06_r1_network.node[5].content_store 	decision_ratio[5] 	0.069550328182967
scalar tree_4_3_u06_r1_network.node[6].core_layer 	interests[6] 	11851
scalar tree_4_3_u06_r1_network.node[6].core_layer 	data[6] 	9689
scalar tree_4_3_u06_r1_network.node[6].content_store 	p_hit[6] 	0.1824318622901
scalar tree_4_3_u06_r1_network.node[6].content_store 	hits[6] 	2162
scalar tree_4_3_u06_r1_network.node[6].content_store 	misses[6] 	9689
scalar tree_4_3_u06_r1_network.node[6].content_store 	decision_yes[6] 	1776
scalar tree_4_3_u06_r1_network.node[6].content_store 	decision_no[6] 	7913
scalar tree_4_3_u06_r1_network.node[6].content_store 	decision_ratio[6] 	0.1833006502219
scalar tree_4_3_u06_r1_network.node[7].core_layer 	interests[7] 	33842
scalar tree_4_3_u06_r1_network.node[7].core_layer 	data[7] 	32330
scalar tree_4_3_u06_r1_network.node[7].content_store 	p_hit[7] 	0.044678210507653
scalar tree_4_3_u06_r1_network.node[7].content_store 	hits[7] 	1512
scalar tree_4_3_u06_r1_network.node[7].content_store 	misses[7] 	32330
scalar tree_4_3_u06_r1_network.node[7].content_store 	decision_yes[7] 	1322
scalar tree_4_3_u06_r1_network.node[7].content_store 	decision_no[7] 	31008
scalar tree_4_3_u06_r1_network.node[7].content_store 	decision_ratio[7] 	0.040890813485926
scalar tree_4_3_u06_r1_network.node[8].core_layer 	interests[8] 	18477
scalar tree_4_3_u06_r1_network.node[8].core_layer 	data[8] 	16914
scalar tree_4_3_u06_r1_network.node[8].content_store 	p_hit[8] 	0.084591654489365
scalar tree_4_3_u06_r1_network.node[8].content_store 	hits[8] 	1563
scalar tree_4_3_u06_r1_network.node[8].content_store 	misses[8] 	16914
scalar tree_4_3_u06_r1_network.node[8].content_store 	decision_yes[8] 	1093
scalar tree_4_3_u06_r1_network.node[8].content_store 	decision_no[8] 	15821
scalar tree_4_3_u06_r1_network.node[8].content_store 	decision_ratio[8] 	0.064621024003784
scalar tree_4_3_u06_r1_network.node[9].core_layer 	interests[9] 	28691
scalar tree_4_3_u06_r1_network.node[9].core_layer 	data[9] 	26058
scalar tree_4_3_u06_r1_network.node[9].content_store 	p_hit[9] 	0.091736084486424
scalar tree_4_3_u06_r1_network.node[9].content_store 	hits[9] 	2632
scalar tree_4_3_u06_r1_network.node[9].content_store 	misses[9] 	26059
scalar tree_4_3_u06_r1_network.node[9].content_store 	decision_yes[9] 	2849
scalar tree_4_3_u06_r1_network.node[9].content_store 	decision_no[9] 	23209
scalar tree_4_3_u06_r1_network.node[9].content_store 	decision_ratio[9] 	0.10933302632589
scalar tree_4_3_u06_r1_network.node[10].core_layer 	interests[10] 	35488
scalar tree_4_3_u06_r1_network.node[10].core_layer 	data[10] 	33089
scalar tree_4_3_u06_r1_network.node[10].content_store 	p_hit[10] 	0.067572137060415
scalar tree_4_3_u06_r1_network.node[10].content_store 	hits[10] 	2398
scalar tree_4_3_u06_r1_network.node[10].content_store 	misses[10] 	33090
scalar tree_4_3_u06_r1_network.node[10].content_store 	decision_yes[10] 	2627
scalar tree_4_3_u06_r1_network.node[10].content_store 	decision_no[10] 	30462
scalar tree_4_3_u06_r1_network.node[10].content_store 	decision_ratio[10] 	0.079391942941763
scalar tree_4_3_u06_r1_network.node[11].core_layer 	interests[11] 	27123
scalar tree_4_3_u06_r1_network.node[11].core_layer 	data[11] 	24955
scalar tree_4_3_u06_r1_network.node[11].content_store 	p_hit[11] 	0.079932160896656
scalar tree_4_3_u06_r1_network.node[11].content_store 	hits[11] 	2168
scalar tree_4_3_u06_r1_network.node[11].content_store 	misses[11] 	24955
scalar tree_4_3_u06_r1_network.node[11].content_store 	decision_yes[11] 	1683
scalar tree_4_3_u06_r1_network.node[11].content_store 	decision_no[11] 	23272
scalar tree_4_3_u06_r1_network.node[11].content_store 	decision_ratio[11] 	0.067441394510118
scalar tree_4_3_u06_r1_network.node[12].core_layer 	interests[12] 	18680
scalar tree_4_3_u06_r1_network.node[12].core_layer 	data[12] 	16908
scalar tree_4_3_u06_r1_network.node[12].content_store 	p_hit[12] 	0.094860813704497
scalar tree_4_3_u06_r1_network.node[12].content_store 	hits[12] 	1772
scalar tree_4_3_u06_r1_network.node[12].content_store 	misses[12] 	16908
scalar tree_4_3_u06_r1_network.node[12].content_store 	decision_yes[12] 	1312
scalar tree_4_3_u06_r1_network.node[12].content_store 	decision_no[12] 	15596
scalar tree_4_3_u06_r1_network.node[12].content_store 	decision_ratio[12] 	0.07759640406908
scalar tree_4_3_u06_r1_network.node[13].core_layer 	interests[13] 	12222
scalar tree_4_3_u06_r1_network.node[13].core_layer 	data[13] 	8651
scalar tree_4_3_u06_r1_network.node[13].content_store 	p_hit[13] 	0.29217803960072
scalar tree_4_3_u06_r1_network.node[13].content_store 	hits[13] 	3571
scalar tree_4_3_u06_r1_network.node[13].content_store 	misses[13] 	8651
scalar tree_4_3_u06_r1_network.node[13].content_store 	decision_yes[13] 	409
scalar tree_4_3_u06_r1_network.node[13].content_store 	decision_no[13] 	8242
scalar tree_4_3_u06_r1_network.node[13].content_store 	decision_ratio[13] 	0.047277771355913
scalar tree_4_3_u06_r1_network.node[14].core_layer 	interests[14] 	12678
scalar tree_4_3_u06_r1_network.node[14].core_layer 	data[14] 	8974
scalar tree_4_3_u06_r1_network.node[14].content_store 	p_hit[14] 	0.29215964663196
scalar tree_4_3_u06_r1_network.node[14].content_store 	hits[14] 	3704
scalar tree_4_3_u06_r1_network.node[14].content_store 	misses[14] 	8974
scalar tree_4_3_u06_r1_network.node[14].content_store 	decision_yes[14] 	719
scalar tree_4_3_u06_r1_network.node[14].content_store 	decision_no[14] 	8255
scalar tree_4_3_u06_r1_network.node[14].content_store 	decision_ratio[14] 	0.08012034767105
scalar tree_4_3_u06_r1_network.node[15].core_layer 	interests[15] 	12099
scalar tree_4_3_u06_r1_network.node[15].core_layer 	data[15] 	8661
scalar tree_4_3_u06_r1_network.node[15].content_store 	p_hit[15] 	0.28415571534838
scalar tree_4_3_u06_r1_network.node[15].content_store 	hits[15] 	3438
scalar tree_4_3_u06_r1_network.node[15].content_store 	misses[15] 	8661
scalar tree_4_3_u06_r1_network.node[15].content_store 	decision_yes[15] 	378
scalar tree_4_3_u06_r1_network.node[15].content_store 	decision_no[15] 	8283
scalar tree_4_3_u06_r1_network.node[15].content_store 	decision_ratio[15] 	0.043643921025286
scalar tree_4_3_u06_r1_network.node[16].core_layer 	interests[16] 	12676
scalar tree_4_3_u06_r1_network.node[16].core_layer 	data[16] 	8859
scalar tree_4_3_u06_r1_network.node[16].content_store 	p_hit[16] 	0.30112022720101
scalar tree_4_3_u06_r1_network.node[16].content_store 	hits[16] 	3817
scalar tree_4_3_u06_r1_network.node[16].content_store 	misses[16] 	8859
scalar tree_4_3_u06_r1_network.node[16].content_store 	decision_yes[16] 	719
scalar tree_4_3_u06_r1_network.node[16].content_store 	decision_no[16] 	8140
scalar tree_4_3_u06_r1_network.node[16].content_store 	decision_ratio[16] 	0.081160401851225
scalar tree_4_3_u06_r1_network.node[17].core_layer 	interests[17] 	12389
scalar tree_4_3_u06_r1_network.node[17].core_layer 	data[17] 	8843
scalar tree_4_3_u06_r1_network.node[17].content_store 	p_hit[17] 	0.28622164823634
scalar tree_4_3_u06_r1_network.node[17].content_store 	hits[17] 	3546
scalar tree_4_3_u06_r1_network.node[17].content_store 	misses[17] 	8843
scalar tree_4_3_u06_r1_network.node[17].content_store 	decision_yes[17] 	370
scalar tree_4_3_u06_r1_network.node[17].content_store 	decision_no[17] 	8473
scalar tree_4_3_u06_r1_network.node[17].content_store 	decision_ratio[17] 	0.0418410041841
scalar tree_4_3_u06_r1_network.node[18].core_layer 	interests[18] 	12548
scalar tree_4_3_u06_r1_network.node[18].core_layer 	data[18] 	8851
scalar tree_4_3_u06_r1_network.node[18].content_store 	p_hit[18] 	0.29462862607587
scalar tree_4_3_u06_r1_network.node[18].content_store 	hits[18] 	3697
scalar tree_4_3_u06_r1_network.node[18].content_store 	misses[18] 	8851
scalar tree_4_3_u06_r1_network.node[18].content_store 	decision_yes[18] 	735
scalar tree_4_3_u06_r1_network.node[18].content_store 	decision_no[18] 	8116
scalar tree_4_3_u06_r1_network.node[18].content_store 	decision_ratio[18] 	0.083041464241329
scalar tree_4_3_u06_r1_network.node[19].core_layer 	interests[19] 	12814
scalar tree_4_3_u06_r1_network.node[19].core_layer 	data[19] 	9057
scalar tree_4_3_u06_r1_network.node[19].content_store 	p_hit[19] 	0.29319494303106
scalar tree_4_3_u06_r1_network.node[19].content_store 	hits[19] 	3757
scalar tree_4_3_u06_r1_network.node[19].content_store 	misses[19] 	9057
scalar tree_4_3_u06_r1_network.node[19].content_store 	decision_yes[19] 	725
scalar tree_4_3_u06_r1_network.node[19].content_store 	decision_no[19] 	8332
scalar tree_4_3_u06_r1_network.node[19].content_store 	decision_ratio[19] 	0.080048581207905
scalar tree_4_3_u06_r1_network.node[20].core_layer 	interests[20] 	12557
scalar tree_4_3_u06_r1_network.node[20].core_layer 	data[20] 	8886
scalar tree_4_3_u06_r1_network.node[20].content_store 	p_hit[20] 	0.29234689814446
scalar tree_4_3_u06_r1_network.node[20].content_store 	hits[20] 	3671
scalar tree_4_3_u06_r1_network.node[20].content_store 	misses[20] 	8886
scalar tree_4_3_u06_r1_network.node[20].content_store 	decision_yes[20] 	672
scalar tree_4_3_u06_r1_network.node[20].content_store 	decision_no[20] 	8214
scalar tree_4_3_u06_r1_network.node[20].content_store 	decision_ratio[20] 	0.075624577987846
scalar tree_4_3_u06_r1_network.node[21].core_layer 	interests[21] 	12204
scalar tree_4_3_u06_r1_network.node[21].core_layer 	data[21] 	8792
scalar tree_4_3_u06_r1_network.node[21].content_store 	p_hit[21] 	0.27958046542117
scalar tree_4_3_u06_r1_network.node[21].content_store 	hits[21] 	3412
scalar tree_4_3_u06_r1_network.node[21].content_store 	misses[21] 	8792
scalar tree_4_3_u06_r1_network.node[21].content_store 	decision_yes[21] 	367
scalar tree_4_3_u06_r1_network.node[21].content_store 	decision_no[21] 	8425
scalar tree_4_3_u06_r1_network.node[21].content_store 	decision_ratio[21] 	0.041742493175614
scalar tree_4_3_u06_r1_network.node[22].core_layer 	interests[22] 	12369
scalar tree_4_3_u06_r1_network.node[22].core_layer 	data[22] 	8864
scalar tree_4_3_u06_r1_network.node[22].content_store 	p_hit[22] 	0.2833697146091
scalar tree_4_3_u06_r1_network.node[22].content_store 	hits[22] 	3505
scalar tree_4_3_u06_r1_network.node[22].content_store 	misses[22] 	8864
scalar tree_4_3_u06_r1_network.node[22].content_store 	decision_yes[22] 	394
scalar tree_4_3_u06_r1_network.node[22].content_store 	decision_no[22] 	8470
scalar tree_4_3_u06_r1_network.node[22].content_store 	decision_ratio[22] 	0.044449458483755
scalar tree_4_3_u06_r1_network.node[23].core_layer 	interests[23] 	12498
scalar tree_4_3_u06_r1_network.node[23].core_layer 	data[23] 	8902
scalar tree_4_3_u06_r1_network.node[23].content_store 	p_hit[23] 	0.28772603616579
scalar tree_4_3_u06_r1_network.node[23].content_store 	hits[23] 	3596
scalar tree_4_3_u06_r1_network.node[23].content_store 	misses[23] 	8902
scalar tree_4_3_u06_r1_network.node[23].content_store 	decision_yes[23] 	631
scalar tree_4_3_u06_r1_network.node[23].content_store 	decision_no[23] 	8271
scalar tree_4_3_u06_r1_network.node[23].content_store 	decision_ratio[23] 	0.070882947652213
scalar tree_4_3_u06_r1_network.node[24].core_layer 	interests[24] 	12669
scalar tree_4_3_u06_r1_network.node[24].core_layer 	data[24] 	8870
scalar tree_4_3_u06_r1_network.node[24].content_store 	p_hit[24] 	0.29986581419212
scalar tree_4_3_u06_r1_network.node[24].content_store 	hits[24] 	3799
scalar tree_4_3_u06_r1_network.node[24].content_store 	misses[24] 	8870
scalar tree_4_3_u06_r1_network.node[24].content_store 	decision_yes[24] 	704
scalar tree_4_3_u06_r1_network.node[24].content_store 	decision_no[24] 	8166
scalar tree_4_3_u06_r1_network.node[24].content_store 	decision_ratio[24] 	0.079368658399098
scalar tree_4_3_u06_r1_network.node[25].core_layer 	interests[25] 	12365
scalar tree_4_3_u06_r1_network.node[25].core_layer 	data[25] 	8729
scalar tree_4_3_u06_r1_network.node[25].content_store 	p_hit[25] 	0.29405580266882
scalar tree_4_3_u06_r1_network.node[25].content_store 	hits[25] 	3636
scalar tree_4_3_u06_r1_network.node[25].content_store 	misses[25] 	8729
scalar tree_4_3_u06_r1_network.node[25].content_store 	decision_yes[25] 	663
scalar tree_4_3_u06_r1_network.node[25].content_store 	decision_no[25] 	8066
scalar tree_4_3_u06_r1_network.node[25].content_store 	decision_ratio[25] 	0.075953717493413
scalar tree_4_3_u06_r1_network.node[26].core_layer 	interests[26] 	12031
scalar tree_4_3_u06_r1_network.node[26].core_layer 	data[26] 	8678
scalar tree_4_3_u06_r1_network.node[26].content_store 	p_hit[26] 	0.27869670019117
scalar tree_4_3_u06_r1_network.node[26].content_store 	hits[26] 	3353
scalar tree_4_3_u06_r1_network.node[26].content_store 	misses[26] 	8678
scalar tree_4_3_u06_r1_network.node[26].content_store 	decision_yes[26] 	375
scalar tree_4_3_u06_r1_network.node[26].content_store 	decision_no[26] 	8303
scalar tree_4_3_u06_r1_network.node[26].content_store 	decision_ratio[26] 	0.043212721825305
scalar tree_4_3_u06_r1_network.node[27].core_layer 	interests[27] 	12175
scalar tree_4_3_u06_r1_network.node[27].core_layer 	data[27] 	8768
scalar tree_4_3_u06_r1_network.node[27].content_store 	p_hit[27] 	0.27983572895277
scalar tree_4_3_u06_r1_network.node[27].content_store 	hits[27] 	3407
scalar tree_4_3_u06_r1_network.node[27].content_store 	misses[27] 	8768
scalar tree_4_3_u06_r1_network.node[27].content_store 	decision_yes[27] 	369
scalar tree_4_3_u06_r1_network.node[27].content_store 	decision_no[27] 	8399
scalar tree_4_3_u06_r1_network.node[27].content_store 	decision_ratio[27] 	0.042084854014599
scalar tree_4_3_u06_r1_network.node[28].core_layer 	interests[28] 	12387
scalar tree_4_3_u06_r1_network.node[28].core_layer 	data[28] 	8829
scalar tree_4_3_u06_r1_network.node[28].content_store 	p_hit[28] 	0.28723661903609
scalar tree_4_3_u06_r1_network.node[28].content_store 	hits[28] 	3558
scalar tree_4_3_u06_r1_network.node[28].content_store 	misses[28] 	8829
scalar tree_4_3_u06_r1_network.node[28].content_store 	decision_yes[28] 	448
scalar tree_4_3_u06_r1_network.node[28].content_store 	decision_no[28] 	8381
scalar tree_4_3_u06_r1_network.node[28].content_store 	decision_ratio[28] 	0.050741873371843
scalar tree_4_3_u06_r1_network.node[29].core_layer 	interests[29] 	12404
scalar tree_4_3_u06_r1_network.node[29].core_layer 	data[29] 	8904
scalar tree_4_3_u06_r1_network.node[29].content_store 	p_hit[29] 	0.28208642373428
scalar tree_4_3_u06_r1_network.node[29].content_store 	hits[29] 	3499
scalar tree_4_3_u06_r1_network.node[29].content_store 	misses[29] 	8905
scalar tree_4_3_u06_r1_network.node[29].content_store 	decision_yes[29] 	458
scalar tree_4_3_u06_r1_network.node[29].content_store 	decision_no[29] 	8446
scalar tree_4_3_u06_r1_network.node[29].content_store 	decision_ratio[29] 	0.051437556154537
scalar tree_4_3_u06_r1_network.node[30].core_layer 	interests[30] 	12398
scalar tree_4_3_u06_r1_network.node[30].core_layer 	data[30] 	8748
scalar tree_4_3_u06_r1_network.node[30].content_store 	p_hit[30] 	0.29440232295532
scalar tree_4_3_u06_r1_network.node[30].content_store 	hits[30] 	3650
scalar tree_4_3_u06_r1_network.node[30].content_store 	misses[30] 	8748
scalar tree_4_3_u06_r1_network.node[30].content_store 	decision_yes[30] 	419
scalar tree_4_3_u06_r1_network.node[30].content_store 	decision_no[30] 	8329
scalar tree_4_3_u06_r1_network.node[30].content_store 	decision_ratio[30] 	0.047896662094193
scalar tree_4_3_u06_r1_network.node[31].core_layer 	interests[31] 	12337
scalar tree_4_3_u06_r1_network.node[31].core_layer 	data[31] 	8755
scalar tree_4_3_u06_r1_network.node[31].content_store 	p_hit[31] 	0.29034611331766
scalar tree_4_3_u06_r1_network.node[31].content_store 	hits[31] 	3582
scalar tree_4_3_u06_r1_network.node[31].content_store 	misses[31] 	8755
scalar tree_4_3_u06_r1_network.node[31].content_store 	decision_yes[31] 	423
scalar tree_4_3_u06_r1_network.node[31].content_store 	decision_no[31] 	8332
scalar tree_4_3_u06_r1_network.node[31].content_store 	decision_ratio[31] 	0.048315248429469
scalar tree_4_3_u06_r1_network.node[32].core_layer 	interests[32] 	12505
scalar tree_4_3_u06_r1_network.node[32].core_layer 	data[32] 	8865
scalar tree_4_3_u06_r1_network.node[32].content_store 	p_hit[32] 	0.29108356657337
scalar tree_4_3_u06_r1_network.node[32].content_store 	hits[32] 	3640
scalar tree_4_3_u06_r1_network.node[32].content_store 	misses[32] 	8865
scalar tree_4_3_u06_r1_network.node[32].content_store 	decision_yes[32] 	696
scalar tree_4_3_u06_r1_network.node[32].content_store 	decision_no[32] 	8169
scalar tree_4_3_u06_r1_network.node[32].content_store 	decision_ratio[32] 	0.078510998307953
scalar tree_4_3_u06_r1_network.node[33].core_layer 	interests[33] 	12353
scalar tree_4_3_u06_r1_network.node[33].core_layer 	data[33] 	8880
scalar tree_4_3_u06_r1_network.node[33].content_store 	p_hit[33] 	0.28122723225127
scalar tree_4_3_u06_r1_network.node[33].content_store 	hits[33] 	3474
scalar tree_4_3_u06_r1_network.node[33].content_store 	misses[33] 	8879
scalar tree_4_3_u06_r1_network.node[33].content_store 	decision_yes[33] 	415
scalar tree_4_3_u06_r1_network.node[33].content_store 	decision_no[33] 	8465
scalar tree_4_3_u06_r1_network.node[33].content_store 	decision_ratio[33] 	0.046734234234234
scalar tree_4_3_u06_r1_network.node[34].core_layer 	interests[34] 	12538
scalar tree_4_3_u06_r1_network.node[34].core_layer 	data[34] 	8858
scalar tree_4_3_u06_r1_network.node[34].content_store 	p_hit[34] 	0.2935077364811
scalar tree_4_3_u06_r1_network.node[34].content_store 	hits[34] 	3680
scalar tree_4_3_u06_r1_network.node[34].content_store 	misses[34] 	8858
scalar tree_4_3_u06_r1_network.node[34].content_store 	decision_yes[34] 	707
scalar tree_4_3_u06_r1_network.node[34].content_store 	decision_no[34] 	8151
scalar tree_4_3_u06_r1_network.node[34].content_store 	decision_ratio[34] 	0.079814856626778
scalar tree_4_3_u06_r1_network.node[35].core_layer 	interests[35] 	12283
scalar tree_4_3_u06_r1_network.node[35].core_layer 	data[35] 	8802
scalar tree_4_3_u06_r1_network.node[35].content_store 	p_hit[35] 	0.28348123422617
scalar tree_4_3_u06_r1_network.node[35].content_store 	hits[35] 	3482
scalar tree_4_3_u06_r1_network.node[35].content_store 	misses[35] 	8801
scalar tree_4_3_u06_r1_network.node[35].content_store 	decision_yes[35] 	365
scalar tree_4_3_u06_r1_network.node[35].content_store 	decision_no[35] 	8437
scalar tree_4_3_u06_r1_network.node[35].content_store 	decision_ratio[35] 	0.041467848216314
scalar tree_4_3_u06_r1_network.node[36].core_layer 	interests[36] 	12358
scalar tree_4_3_u06_r1_network.node[36].core_layer 	data[36] 	8820
scalar tree_4_3_u06_r1_network.node[36].content_store 	p_hit[36] 	0.28629228030426
scalar tree_4_3_u06_r1_network.node[36].content_store 	hits[36] 	3538
scalar tree_4_3_u06_r1_network.node[36].content_store 	misses[36] 	8820
scalar tree_4_3_u06_r1_network.node[36].content_store 	decision_yes[36] 	711
scalar tree_4_3_u06_r1_network.node[36].content_store 	decision_no[36] 	8109
scalar tree_4_3_u06_r1_network.node[36].content_store 	decision_ratio[36] 	0.080612244897959
scalar tree_4_3_u06_r1_network.node[37].core_layer 	interests[37] 	11993
scalar tree_4_3_u06_r1_network.node[37].core_layer 	data[37] 	8585
scalar tree_4_3_u06_r1_network.node[37].content_store 	p_hit[37] 	0.28416576336196
scalar tree_4_3_u06_r1_network.node[37].content_store 	hits[37] 	3408
scalar tree_4_3_u06_r1_network.node[37].content_store 	misses[37] 	8585
scalar tree_4_3_u06_r1_network.node[37].content_store 	decision_yes[37] 	383
scalar tree_4_3_u06_r1_network.node[37].content_store 	decision_no[37] 	8202
scalar tree_4_3_u06_r1_network.node[37].content_store 	decision_ratio[37] 	0.044612696563774
scalar tree_4_3_u06_r1_network.node[38].core_layer 	interests[38] 	12562
scalar tree_4_3_u06_r1_network.node[38].core_layer 	data[38] 	8885
scalar tree_4_3_u06_r1_network.node[38].content_store 	p_hit[38] 	0.29262856233084
scalar tree_4_3_u06_r1_network.node[38].content_store 	hits[38] 	3676
scalar tree_4_3_u06_r1_network.node[38].content_store 	misses[38] 	8886
scalar tree_4_3_u06_r1_network.node[38].content_store 	decision_yes[38] 	692
scalar tree_4_3_u06_r1_network.node[38].content_store 	decision_no[38] 	8193
scalar tree_4_3_u06_r1_network.node[38].content_store 	decision_ratio[38] 	0.077884074282499
scalar tree_4_3_u06_r1_network.node[39].core_layer 	interests[39] 	12261
scalar tree_4_3_u06_r1_network.node[39].core_layer 	data[39] 	8834
scalar tree_4_3_u06_r1_network.node[39].content_store 	p_hit[39] 	0.27950411875051
scalar tree_4_3_u06_r1_network.node[39].content_store 	hits[39] 	3427
scalar tree_4_3_u06_r1_network.node[39].content_store 	misses[39] 	8834
scalar tree_4_3_u06_r1_network.node[39].content_store 	decision_yes[39] 	363
scalar tree_4_3_u06_r1_network.node[39].content_store 	decision_no[39] 	8471
scalar tree_4_3_u06_r1_network.node[39].content_store 	decision_ratio[39] 	0.041091238397102
scalar tree_4_3_u06_r1_network.client[13] 	hdistance[13] 	2.6808475002094
scalar tree_4_3_u06_r1_network.client[13] 	downloads[13] 	11941
scalar tree_4_3_u06_r1_network.client[13] 	avg_time[13] 	0.004124442216
scalar tree_4_3_u06_r1_network.client[14] 	hdistance[14] 	2.6918695831614
scalar tree_4_3_u06_r1_network.client[14] 	downloads[14] 	12115
scalar tree_4_3_u06_r1_network.client[14] 	avg_time[14] 	0.00413173448
scalar tree_4_3_u06_r1_network.client[15] 	hdistance[15] 	2.7193190480224
scalar tree_4_3_u06_r1_network.client[15] 	downloads[15] 	11807
scalar tree_4_3_u06_r1_network.client[15] 	avg_time[15] 	0.004179043349
scalar tree_4_3_u06_r1_network.client[16] 	hdistance[16] 	2.6600578273441
scalar tree_4_3_u06_r1_network.client[16] 	downloads[16] 	12105
scalar tree_4_3_u06_r1_network.client[16] 	avg_time[16] 	0.004082442254
scalar tree_4_3_u06_r1_network.client[17] 	hdistance[17] 	2.7022819013098
scalar tree_4_3_u06_r1_network.client[17] 	downloads[17] 	12139
scalar tree_4_3_u06_r1_network.client[17] 	avg_time[17] 	0.004156517306
scalar tree_4_3_u06_r1_network.client[18] 	hdistance[18] 	2.6430705394191
scalar tree_4_3_u06_r1_network.client[18] 	downloads[18] 	12050
scalar tree_4_3_u06_r1_network.client[18] 	avg_time[18] 	0.004066884937
scalar tree_4_3_u06_r1_network.client[19] 	hdistance[19] 	2.6871342619303
scalar tree_4_3_u06_r1_network.client[19] 	downloads[19] 	12133
scalar tree_4_3_u06_r1_network.client[19] 	avg_time[19] 	0.004137967773
scalar tree_4_3_u06_r1_network.client[20] 	hdistance[20] 	2.6767391665283
scalar tree_4_3_u06_r1_network.client[20] 	downloads[20] 	12046
scalar tree_4_3_u06_r1_network.client[20] 	avg_time[20] 	0.00411073916
scalar tree_4_3_u06_r1_network.client[21] 	hdistance[21] 	2.6962839248434
scalar tree_4_3_u06_r1_network.client[21] 	downloads[21] 	11975
scalar tree_4_3_u06_r1_network.client[21] 	avg_time[21] 	0.004162836269
scalar tree_4_3_u06_r1_network.client[22] 	hdistance[22] 	2.7135707253036
scalar tree_4_3_u06_r1_network.client[22] 	downloads[22] 	12188
scalar tree_4_3_u06_r1_network.client[22] 	avg_time[22] 	0.004157528957
scalar tree_4_3_u06_r1_network.client[23] 	hdistance[23] 	2.719127128451
scalar tree_4_3_u06_r1_network.client[23] 	downloads[23] 	12098
scalar tree_4_3_u06_r1_network.client[23] 	avg_time[23] 	0.004155559865
scalar tree_4_3_u06_r1_network.client[24] 	hdistance[24] 	2.6711493484798
scalar tree_4_3_u06_r1_network.client[24] 	downloads[24] 	11972
scalar tree_4_3_u06_r1_network.client[24] 	avg_time[24] 	0.004116769483
scalar tree_4_3_u06_r1_network.client[25] 	hdistance[25] 	2.684553660983
scalar tree_4_3_u06_r1_network.client[25] 	downloads[25] 	11964
scalar tree_4_3_u06_r1_network.client[25] 	avg_time[25] 	0.004102712841
scalar tree_4_3_u06_r1_network.client[26] 	hdistance[26] 	2.7413560465508
scalar tree_4_3_u06_r1_network.client[26] 	downloads[26] 	11858
scalar tree_4_3_u06_r1_network.client[26] 	avg_time[26] 	0.00420019941
scalar tree_4_3_u06_r1_network.client[27] 	hdistance[27] 	2.7454545454545
scalar tree_4_3_u06_r1_network.client[27] 	downloads[27] 	11990
scalar tree_4_3_u06_r1_network.client[27] 	avg_time[27] 	0.004200952233
scalar tree_4_3_u06_r1_network.client[28] 	hdistance[28] 	2.6948262934267
scalar tree_4_3_u06_r1_network.client[28] 	downloads[28] 	12003
scalar tree_4_3_u06_r1_network.client[28] 	avg_time[28] 	0.004158457409
scalar tree_4_3_u06_r1_network.client[29] 	hdistance[29] 	2.7064349850349
scalar tree_4_3_u06_r1_network.client[29] 	downloads[29] 	12028
scalar tree_4_3_u06_r1_network.client[29] 	avg_time[29] 	0.004177748934
scalar tree_4_3_u06_r1_network.client[30] 	hdistance[30] 	2.6806589179697
scalar tree_4_3_u06_r1_network.client[30] 	downloads[30] 	11959
scalar tree_4_3_u06_r1_network.client[30] 	avg_time[30] 	0.004137132217
scalar tree_4_3_u06_r1_network.client[31] 	hdistance[31] 	2.6644692923898
scalar tree_4_3_u06_r1_network.client[31] 	downloads[31] 	11984
scalar tree_4_3_u06_r1_network.client[31] 	avg_time[31] 	0.004118488315
scalar tree_4_3_u06_r1_network.client[32] 	hdistance[32] 	2.6930510041173
scalar tree_4_3_u06_r1_network.client[32] 	downloads[32] 	11901
scalar tree_4_3_u06_r1_network.client[32] 	avg_time[32] 	0.004142338022
scalar tree_4_3_u06_r1_network.client[33] 	hdistance[33] 	2.7116329419602
scalar tree_4_3_u06_r1_network.client[33] 	downloads[33] 	12009
scalar tree_4_3_u06_r1_network.client[33] 	avg_time[33] 	0.004186357231
scalar tree_4_3_u06_r1_network.client[34] 	hdistance[34] 	2.6866347847974
scalar tree_4_3_u06_r1_network.client[34] 	downloads[34] 	11919
scalar tree_4_3_u06_r1_network.client[34] 	avg_time[34] 	0.00413272628
scalar tree_4_3_u06_r1_network.client[35] 	hdistance[35] 	2.719940129719
scalar tree_4_3_u06_r1_network.client[35] 	downloads[35] 	12026
scalar tree_4_3_u06_r1_network.client[35] 	avg_time[35] 	0.004184597014
scalar tree_4_3_u06_r1_network.client[36] 	hdistance[36] 	2.7013730940948
scalar tree_4_3_u06_r1_network.client[36] 	downloads[36] 	11871
scalar tree_4_3_u06_r1_network.client[36] 	avg_time[36] 	0.004149942299
scalar tree_4_3_u06_r1_network.client[37] 	hdistance[37] 	2.6981100093228
scalar tree_4_3_u06_r1_network.client[37] 	downloads[37] 	11799
scalar tree_4_3_u06_r1_network.client[37] 	avg_time[37] 	0.00415950206
scalar tree_4_3_u06_r1_network.client[38] 	hdistance[38] 	2.681269631344
scalar tree_4_3_u06_r1_network.client[38] 	downloads[38] 	12098
scalar tree_4_3_u06_r1_network.client[38] 	avg_time[38] 	0.004115057339
scalar tree_4_3_u06_r1_network.client[39] 	hdistance[39] 	2.7283150548355
scalar tree_4_3_u06_r1_network.client[39] 	downloads[39] 	12036
scalar tree_4_3_u06_r1_network.client[39] 	avg_time[39] 	0.00420538082
