version 2
run General-129-20160819-12:53:53-2054
attr a 0.9
attr cd lcd
attr configname General
attr cr lru
attr datetime 20160819-12:53:53
attr experiment General
attr fsize 1
attr inifile hw5115/scenario_A/NRR-LCD.ini
attr iterationvars "$name=tree_4_3, $un=06, $rep=10, $cd=lcd, $cr=lru, $fsize=1, $a=0.9, $sl=nrr, $ttl=1000, $variance=0.05"
attr iterationvars2 "$name=tree_4_3, $un=06, $rep=10, $cd=lcd, $cr=lru, $fsize=1, $a=0.9, $sl=nrr, $ttl=1000, $variance=0.05, $repetition=0"
attr measurement "$name=tree_4_3, $un=06, $rep=10, $cd=lcd, $cr=lru, $fsize=1, $a=0.9, $sl=nrr, $ttl=1000, $variance=0.05"
attr name tree_4_3
attr network networks.${name}_u${un}_r${rep}_network
attr processid 2054
attr rep 10
attr repetition 0
attr replication #0
attr resultdir results
attr runnumber 129
attr seedset 10
attr sl nrr
attr ttl 1000
attr un 06
attr variance 0.05

scalar . 	a 	0.9
scalar . 	fsize 	1
scalar . 	rep 	10
scalar . 	ttl 	1000
scalar . 	un 	06
scalar . 	variance 	0.05
scalar tree_4_3_u06_r10_network.content_distribution 	repo-0 	0
scalar tree_4_3_u06_r10_network.content_distribution 	client-0 	13
scalar tree_4_3_u06_r10_network.content_distribution 	client-1 	14
scalar tree_4_3_u06_r10_network.content_distribution 	client-2 	15
scalar tree_4_3_u06_r10_network.content_distribution 	client-3 	16
scalar tree_4_3_u06_r10_network.content_distribution 	client-4 	17
scalar tree_4_3_u06_r10_network.content_distribution 	client-5 	18
scalar tree_4_3_u06_r10_network.content_distribution 	client-6 	19
scalar tree_4_3_u06_r10_network.content_distribution 	client-7 	20
scalar tree_4_3_u06_r10_network.content_distribution 	client-8 	21
scalar tree_4_3_u06_r10_network.content_distribution 	client-9 	22
scalar tree_4_3_u06_r10_network.content_distribution 	client-10 	23
scalar tree_4_3_u06_r10_network.content_distribution 	client-11 	24
scalar tree_4_3_u06_r10_network.content_distribution 	client-12 	25
scalar tree_4_3_u06_r10_network.content_distribution 	client-13 	26
scalar tree_4_3_u06_r10_network.content_distribution 	client-14 	27
scalar tree_4_3_u06_r10_network.content_distribution 	client-15 	28
scalar tree_4_3_u06_r10_network.content_distribution 	client-16 	29
scalar tree_4_3_u06_r10_network.content_distribution 	client-17 	30
scalar tree_4_3_u06_r10_network.content_distribution 	client-18 	31
scalar tree_4_3_u06_r10_network.content_distribution 	client-19 	32
scalar tree_4_3_u06_r10_network.content_distribution 	client-20 	33
scalar tree_4_3_u06_r10_network.content_distribution 	client-21 	34
scalar tree_4_3_u06_r10_network.content_distribution 	client-22 	35
scalar tree_4_3_u06_r10_network.content_distribution 	client-23 	36
scalar tree_4_3_u06_r10_network.content_distribution 	client-24 	37
scalar tree_4_3_u06_r10_network.content_distribution 	client-25 	38
scalar tree_4_3_u06_r10_network.content_distribution 	client-26 	39
scalar tree_4_3_u06_r10_network.content_distribution 	repo-0_card 	100000
scalar tree_4_3_u06_r10_network.content_distribution 	repo-0_price 	0
scalar tree_4_3_u06_r10_network.statistics 	stabilization_time 	747.6
scalar tree_4_3_u06_r10_network.statistics 	p_hit 	0.21637193779507
scalar tree_4_3_u06_r10_network.statistics 	interests 	24848.425
scalar tree_4_3_u06_r10_network.statistics 	data 	16752.75
scalar tree_4_3_u06_r10_network.statistics 	hdistance 	2.6894050626707
scalar tree_4_3_u06_r10_network.statistics 	avg_time 	0.004138632262
scalar tree_4_3_u06_r10_network.statistics 	downloads 	323828
scalar tree_4_3_u06_r10_network.statistics 	total_cost 	0
scalar tree_4_3_u06_r10_network.statistics 	total_replicas 	100000
scalar tree_4_3_u06_r10_network.statistics 	inner_hit 	0.37995787887397
scalar tree_4_3_u06_r10_network.node[0].core_layer 	interests[0] 	202115
scalar tree_4_3_u06_r10_network.node[0].core_layer 	repo_load[0] 	200787
scalar tree_4_3_u06_r10_network.node[0].core_layer 	data[0] 	0
scalar tree_4_3_u06_r10_network.node[0].core_layer 	repo_int[0] 	200787
scalar tree_4_3_u06_r10_network.node[0].content_store 	p_hit[0] 	0.0065705167849986
scalar tree_4_3_u06_r10_network.node[0].content_store 	hits[0] 	1328
scalar tree_4_3_u06_r10_network.node[0].content_store 	misses[0] 	200787
scalar tree_4_3_u06_r10_network.node[0].content_store 	decision_yes[0] 	200787
scalar tree_4_3_u06_r10_network.node[0].content_store 	decision_no[0] 	0
scalar tree_4_3_u06_r10_network.node[0].content_store 	decision_ratio[0] 	1
scalar tree_4_3_u06_r10_network.node[1].core_layer 	interests[1] 	100374
scalar tree_4_3_u06_r10_network.node[1].core_layer 	data[1] 	98536
scalar tree_4_3_u06_r10_network.node[1].content_store 	p_hit[1] 	0.018291589455437
scalar tree_4_3_u06_r10_network.node[1].content_store 	hits[1] 	1836
scalar tree_4_3_u06_r10_network.node[1].content_store 	misses[1] 	98538
scalar tree_4_3_u06_r10_network.node[1].content_store 	decision_yes[1] 	1920
scalar tree_4_3_u06_r10_network.node[1].content_store 	decision_no[1] 	96616
scalar tree_4_3_u06_r10_network.node[1].content_store 	decision_ratio[1] 	0.019485264268897
scalar tree_4_3_u06_r10_network.node[2].core_layer 	interests[2] 	64737
scalar tree_4_3_u06_r10_network.node[2].core_layer 	data[2] 	62237
scalar tree_4_3_u06_r10_network.node[2].content_store 	p_hit[2] 	0.03860234487233
scalar tree_4_3_u06_r10_network.node[2].content_store 	hits[2] 	2499
scalar tree_4_3_u06_r10_network.node[2].content_store 	misses[2] 	62238
scalar tree_4_3_u06_r10_network.node[2].content_store 	decision_yes[2] 	2406
scalar tree_4_3_u06_r10_network.node[2].content_store 	decision_no[2] 	59831
scalar tree_4_3_u06_r10_network.node[2].content_store 	decision_ratio[2] 	0.038658675707377
scalar tree_4_3_u06_r10_network.node[3].core_layer 	interests[3] 	48669
scalar tree_4_3_u06_r10_network.node[3].core_layer 	data[3] 	46828
scalar tree_4_3_u06_r10_network.node[3].content_store 	p_hit[3] 	0.037826953502229
scalar tree_4_3_u06_r10_network.node[3].content_store 	hits[3] 	1841
scalar tree_4_3_u06_r10_network.node[3].content_store 	misses[3] 	46828
scalar tree_4_3_u06_r10_network.node[3].content_store 	decision_yes[3] 	1261
scalar tree_4_3_u06_r10_network.node[3].content_store 	decision_no[3] 	45567
scalar tree_4_3_u06_r10_network.node[3].content_store 	decision_ratio[3] 	0.026928333475698
scalar tree_4_3_u06_r10_network.node[4].core_layer 	interests[4] 	33203
scalar tree_4_3_u06_r10_network.node[4].core_layer 	data[4] 	31593
scalar tree_4_3_u06_r10_network.node[4].content_store 	p_hit[4] 	0.048459476553323
scalar tree_4_3_u06_r10_network.node[4].content_store 	hits[4] 	1609
scalar tree_4_3_u06_r10_network.node[4].content_store 	misses[4] 	31594
scalar tree_4_3_u06_r10_network.node[4].content_store 	decision_yes[4] 	1407
scalar tree_4_3_u06_r10_network.node[4].content_store 	decision_no[4] 	30186
scalar tree_4_3_u06_r10_network.node[4].content_store 	decision_ratio[4] 	0.044535181844079
scalar tree_4_3_u06_r10_network.node[5].core_layer 	interests[5] 	19618
scalar tree_4_3_u06_r10_network.node[5].core_layer 	data[5] 	17451
scalar tree_4_3_u06_r10_network.node[5].content_store 	p_hit[5] 	0.11045978183301
scalar tree_4_3_u06_r10_network.node[5].content_store 	hits[5] 	2167
scalar tree_4_3_u06_r10_network.node[5].content_store 	misses[5] 	17451
scalar tree_4_3_u06_r10_network.node[5].content_store 	decision_yes[5] 	1925
scalar tree_4_3_u06_r10_network.node[5].content_store 	decision_no[5] 	15526
scalar tree_4_3_u06_r10_network.node[5].content_store 	decision_ratio[5] 	0.1103088648215
scalar tree_4_3_u06_r10_network.node[6].core_layer 	interests[6] 	27797
scalar tree_4_3_u06_r10_network.node[6].core_layer 	data[6] 	25521
scalar tree_4_3_u06_r10_network.node[6].content_store 	p_hit[6] 	0.081843364391841
scalar tree_4_3_u06_r10_network.node[6].content_store 	hits[6] 	2275
scalar tree_4_3_u06_r10_network.node[6].content_store 	misses[6] 	25522
scalar tree_4_3_u06_r10_network.node[6].content_store 	decision_yes[6] 	2139
scalar tree_4_3_u06_r10_network.node[6].content_store 	decision_no[6] 	23382
scalar tree_4_3_u06_r10_network.node[6].content_store 	decision_ratio[6] 	0.08381333019866
scalar tree_4_3_u06_r10_network.node[7].core_layer 	interests[7] 	35235
scalar tree_4_3_u06_r10_network.node[7].core_layer 	data[7] 	32950
scalar tree_4_3_u06_r10_network.node[7].content_store 	p_hit[7] 	0.064821910032638
scalar tree_4_3_u06_r10_network.node[7].content_store 	hits[7] 	2284
scalar tree_4_3_u06_r10_network.node[7].content_store 	misses[7] 	32951
scalar tree_4_3_u06_r10_network.node[7].content_store 	decision_yes[7] 	2622
scalar tree_4_3_u06_r10_network.node[7].content_store 	decision_no[7] 	30328
scalar tree_4_3_u06_r10_network.node[7].content_store 	decision_ratio[7] 	0.079575113808801
scalar tree_4_3_u06_r10_network.node[8].core_layer 	interests[8] 	26743
scalar tree_4_3_u06_r10_network.node[8].core_layer 	data[8] 	24882
scalar tree_4_3_u06_r10_network.node[8].content_store 	p_hit[8] 	0.069588303481285
scalar tree_4_3_u06_r10_network.node[8].content_store 	hits[8] 	1861
scalar tree_4_3_u06_r10_network.node[8].content_store 	misses[8] 	24882
scalar tree_4_3_u06_r10_network.node[8].content_store 	decision_yes[8] 	1626
scalar tree_4_3_u06_r10_network.node[8].content_store 	decision_no[8] 	23256
scalar tree_4_3_u06_r10_network.node[8].content_store 	decision_ratio[8] 	0.065348444658789
scalar tree_4_3_u06_r10_network.node[9].core_layer 	interests[9] 	20024
scalar tree_4_3_u06_r10_network.node[9].core_layer 	data[9] 	17773
scalar tree_4_3_u06_r10_network.node[9].content_store 	p_hit[9] 	0.11236516180583
scalar tree_4_3_u06_r10_network.node[9].content_store 	hits[9] 	2250
scalar tree_4_3_u06_r10_network.node[9].content_store 	misses[9] 	17774
scalar tree_4_3_u06_r10_network.node[9].content_store 	decision_yes[9] 	2144
scalar tree_4_3_u06_r10_network.node[9].content_store 	decision_no[9] 	15629
scalar tree_4_3_u06_r10_network.node[9].content_store 	decision_ratio[9] 	0.12063241996287
scalar tree_4_3_u06_r10_network.node[10].core_layer 	interests[10] 	35282
scalar tree_4_3_u06_r10_network.node[10].core_layer 	data[10] 	33169
scalar tree_4_3_u06_r10_network.node[10].content_store 	p_hit[10] 	0.0599172382518
scalar tree_4_3_u06_r10_network.node[10].content_store 	hits[10] 	2114
scalar tree_4_3_u06_r10_network.node[10].content_store 	misses[10] 	33168
scalar tree_4_3_u06_r10_network.node[10].content_store 	decision_yes[10] 	2133
scalar tree_4_3_u06_r10_network.node[10].content_store 	decision_no[10] 	31036
scalar tree_4_3_u06_r10_network.node[10].content_store 	decision_ratio[10] 	0.064307033676023
scalar tree_4_3_u06_r10_network.node[11].core_layer 	interests[11] 	25943
scalar tree_4_3_u06_r10_network.node[11].core_layer 	data[11] 	24190
scalar tree_4_3_u06_r10_network.node[11].content_store 	p_hit[11] 	0.067532667771653
scalar tree_4_3_u06_r10_network.node[11].content_store 	hits[11] 	1752
scalar tree_4_3_u06_r10_network.node[11].content_store 	misses[11] 	24191
scalar tree_4_3_u06_r10_network.node[11].content_store 	decision_yes[11] 	1401
scalar tree_4_3_u06_r10_network.node[11].content_store 	decision_no[11] 	22789
scalar tree_4_3_u06_r10_network.node[11].content_store 	decision_ratio[11] 	0.057916494419181
scalar tree_4_3_u06_r10_network.node[12].core_layer 	interests[12] 	19335
scalar tree_4_3_u06_r10_network.node[12].core_layer 	data[12] 	17283
scalar tree_4_3_u06_r10_network.node[12].content_store 	p_hit[12] 	0.10612878200155
scalar tree_4_3_u06_r10_network.node[12].content_store 	hits[12] 	2052
scalar tree_4_3_u06_r10_network.node[12].content_store 	misses[12] 	17283
scalar tree_4_3_u06_r10_network.node[12].content_store 	decision_yes[12] 	1810
scalar tree_4_3_u06_r10_network.node[12].content_store 	decision_no[12] 	15473
scalar tree_4_3_u06_r10_network.node[12].content_store 	decision_ratio[12] 	0.1047271885668
scalar tree_4_3_u06_r10_network.node[13].core_layer 	interests[13] 	12071
scalar tree_4_3_u06_r10_network.node[13].core_layer 	data[13] 	8565
scalar tree_4_3_u06_r10_network.node[13].content_store 	p_hit[13] 	0.29044818159225
scalar tree_4_3_u06_r10_network.node[13].content_store 	hits[13] 	3506
scalar tree_4_3_u06_r10_network.node[13].content_store 	misses[13] 	8565
scalar tree_4_3_u06_r10_network.node[13].content_store 	decision_yes[13] 	343
scalar tree_4_3_u06_r10_network.node[13].content_store 	decision_no[13] 	8222
scalar tree_4_3_u06_r10_network.node[13].content_store 	decision_ratio[13] 	0.040046701692936
scalar tree_4_3_u06_r10_network.node[14].core_layer 	interests[14] 	12415
scalar tree_4_3_u06_r10_network.node[14].core_layer 	data[14] 	8770
scalar tree_4_3_u06_r10_network.node[14].content_store 	p_hit[14] 	0.29359645590012
scalar tree_4_3_u06_r10_network.node[14].content_store 	hits[14] 	3645
scalar tree_4_3_u06_r10_network.node[14].content_store 	misses[14] 	8770
scalar tree_4_3_u06_r10_network.node[14].content_store 	decision_yes[14] 	640
scalar tree_4_3_u06_r10_network.node[14].content_store 	decision_no[14] 	8130
scalar tree_4_3_u06_r10_network.node[14].content_store 	decision_ratio[14] 	0.072976054732041
scalar tree_4_3_u06_r10_network.node[15].core_layer 	interests[15] 	12434
scalar tree_4_3_u06_r10_network.node[15].core_layer 	data[15] 	8761
scalar tree_4_3_u06_r10_network.node[15].content_store 	p_hit[15] 	0.29539971047129
scalar tree_4_3_u06_r10_network.node[15].content_store 	hits[15] 	3673
scalar tree_4_3_u06_r10_network.node[15].content_store 	misses[15] 	8761
scalar tree_4_3_u06_r10_network.node[15].content_store 	decision_yes[15] 	694
scalar tree_4_3_u06_r10_network.node[15].content_store 	decision_no[15] 	8067
scalar tree_4_3_u06_r10_network.node[15].content_store 	decision_ratio[15] 	0.079214701518092
scalar tree_4_3_u06_r10_network.node[16].core_layer 	interests[16] 	12408
scalar tree_4_3_u06_r10_network.node[16].core_layer 	data[16] 	8884
scalar tree_4_3_u06_r10_network.node[16].content_store 	p_hit[16] 	0.28401031592521
scalar tree_4_3_u06_r10_network.node[16].content_store 	hits[16] 	3524
scalar tree_4_3_u06_r10_network.node[16].content_store 	misses[16] 	8884
scalar tree_4_3_u06_r10_network.node[16].content_store 	decision_yes[16] 	749
scalar tree_4_3_u06_r10_network.node[16].content_store 	decision_no[16] 	8135
scalar tree_4_3_u06_r10_network.node[16].content_store 	decision_ratio[16] 	0.084308869878433
scalar tree_4_3_u06_r10_network.node[17].core_layer 	interests[17] 	12289
scalar tree_4_3_u06_r10_network.node[17].core_layer 	data[17] 	8855
scalar tree_4_3_u06_r10_network.node[17].content_store 	p_hit[17] 	0.27943689478395
scalar tree_4_3_u06_r10_network.node[17].content_store 	hits[17] 	3434
scalar tree_4_3_u06_r10_network.node[17].content_store 	misses[17] 	8855
scalar tree_4_3_u06_r10_network.node[17].content_store 	decision_yes[17] 	374
scalar tree_4_3_u06_r10_network.node[17].content_store 	decision_no[17] 	8481
scalar tree_4_3_u06_r10_network.node[17].content_store 	decision_ratio[17] 	0.04223602484472
scalar tree_4_3_u06_r10_network.node[18].core_layer 	interests[18] 	12701
scalar tree_4_3_u06_r10_network.node[18].core_layer 	data[18] 	8890
scalar tree_4_3_u06_r10_network.node[18].content_store 	p_hit[18] 	0.30005511377057
scalar tree_4_3_u06_r10_network.node[18].content_store 	hits[18] 	3811
scalar tree_4_3_u06_r10_network.node[18].content_store 	misses[18] 	8890
scalar tree_4_3_u06_r10_network.node[18].content_store 	decision_yes[18] 	745
scalar tree_4_3_u06_r10_network.node[18].content_store 	decision_no[18] 	8145
scalar tree_4_3_u06_r10_network.node[18].content_store 	decision_ratio[18] 	0.083802024746907
scalar tree_4_3_u06_r10_network.node[19].core_layer 	interests[19] 	12240
scalar tree_4_3_u06_r10_network.node[19].core_layer 	data[19] 	8726
scalar tree_4_3_u06_r10_network.node[19].content_store 	p_hit[19] 	0.28709150326797
scalar tree_4_3_u06_r10_network.node[19].content_store 	hits[19] 	3514
scalar tree_4_3_u06_r10_network.node[19].content_store 	misses[19] 	8726
scalar tree_4_3_u06_r10_network.node[19].content_store 	decision_yes[19] 	420
scalar tree_4_3_u06_r10_network.node[19].content_store 	decision_no[19] 	8306
scalar tree_4_3_u06_r10_network.node[19].content_store 	decision_ratio[19] 	0.048132019252808
scalar tree_4_3_u06_r10_network.node[20].core_layer 	interests[20] 	12512
scalar tree_4_3_u06_r10_network.node[20].core_layer 	data[20] 	8906
scalar tree_4_3_u06_r10_network.node[20].content_store 	p_hit[20] 	0.28820332480818
scalar tree_4_3_u06_r10_network.node[20].content_store 	hits[20] 	3606
scalar tree_4_3_u06_r10_network.node[20].content_store 	misses[20] 	8906
scalar tree_4_3_u06_r10_network.node[20].content_store 	decision_yes[20] 	419
scalar tree_4_3_u06_r10_network.node[20].content_store 	decision_no[20] 	8487
scalar tree_4_3_u06_r10_network.node[20].content_store 	decision_ratio[20] 	0.047046934650797
scalar tree_4_3_u06_r10_network.node[21].core_layer 	interests[21] 	12153
scalar tree_4_3_u06_r10_network.node[21].core_layer 	data[21] 	8648
scalar tree_4_3_u06_r10_network.node[21].content_store 	p_hit[21] 	0.28840615485888
scalar tree_4_3_u06_r10_network.node[21].content_store 	hits[21] 	3505
scalar tree_4_3_u06_r10_network.node[21].content_store 	misses[21] 	8648
scalar tree_4_3_u06_r10_network.node[21].content_store 	decision_yes[21] 	408
scalar tree_4_3_u06_r10_network.node[21].content_store 	decision_no[21] 	8240
scalar tree_4_3_u06_r10_network.node[21].content_store 	decision_ratio[21] 	0.047178538390379
scalar tree_4_3_u06_r10_network.node[22].core_layer 	interests[22] 	12474
scalar tree_4_3_u06_r10_network.node[22].core_layer 	data[22] 	8922
scalar tree_4_3_u06_r10_network.node[22].content_store 	p_hit[22] 	0.28475228475228
scalar tree_4_3_u06_r10_network.node[22].content_store 	hits[22] 	3552
scalar tree_4_3_u06_r10_network.node[22].content_store 	misses[22] 	8922
scalar tree_4_3_u06_r10_network.node[22].content_store 	decision_yes[22] 	412
scalar tree_4_3_u06_r10_network.node[22].content_store 	decision_no[22] 	8510
scalar tree_4_3_u06_r10_network.node[22].content_store 	decision_ratio[22] 	0.046177986998431
scalar tree_4_3_u06_r10_network.node[23].core_layer 	interests[23] 	12333
scalar tree_4_3_u06_r10_network.node[23].core_layer 	data[23] 	8673
scalar tree_4_3_u06_r10_network.node[23].content_store 	p_hit[23] 	0.2966836941539
scalar tree_4_3_u06_r10_network.node[23].content_store 	hits[23] 	3659
scalar tree_4_3_u06_r10_network.node[23].content_store 	misses[23] 	8674
scalar tree_4_3_u06_r10_network.node[23].content_store 	decision_yes[23] 	406
scalar tree_4_3_u06_r10_network.node[23].content_store 	decision_no[23] 	8267
scalar tree_4_3_u06_r10_network.node[23].content_store 	decision_ratio[23] 	0.04681194511703
scalar tree_4_3_u06_r10_network.node[24].core_layer 	interests[24] 	12791
scalar tree_4_3_u06_r10_network.node[24].core_layer 	data[24] 	8871
scalar tree_4_3_u06_r10_network.node[24].content_store 	p_hit[24] 	0.30638730357282
scalar tree_4_3_u06_r10_network.node[24].content_store 	hits[24] 	3919
scalar tree_4_3_u06_r10_network.node[24].content_store 	misses[24] 	8872
scalar tree_4_3_u06_r10_network.node[24].content_store 	decision_yes[24] 	707
scalar tree_4_3_u06_r10_network.node[24].content_store 	decision_no[24] 	8164
scalar tree_4_3_u06_r10_network.node[24].content_store 	decision_ratio[24] 	0.079697892007665
scalar tree_4_3_u06_r10_network.node[25].core_layer 	interests[25] 	12687
scalar tree_4_3_u06_r10_network.node[25].core_layer 	data[25] 	8910
scalar tree_4_3_u06_r10_network.node[25].content_store 	p_hit[25] 	0.2977063135493
scalar tree_4_3_u06_r10_network.node[25].content_store 	hits[25] 	3777
scalar tree_4_3_u06_r10_network.node[25].content_store 	misses[25] 	8910
scalar tree_4_3_u06_r10_network.node[25].content_store 	decision_yes[25] 	701
scalar tree_4_3_u06_r10_network.node[25].content_store 	decision_no[25] 	8209
scalar tree_4_3_u06_r10_network.node[25].content_store 	decision_ratio[25] 	0.078675645342312
scalar tree_4_3_u06_r10_network.node[26].core_layer 	interests[26] 	12348
scalar tree_4_3_u06_r10_network.node[26].core_layer 	data[26] 	8796
scalar tree_4_3_u06_r10_network.node[26].content_store 	p_hit[26] 	0.28765792031098
scalar tree_4_3_u06_r10_network.node[26].content_store 	hits[26] 	3552
scalar tree_4_3_u06_r10_network.node[26].content_store 	misses[26] 	8796
scalar tree_4_3_u06_r10_network.node[26].content_store 	decision_yes[26] 	420
scalar tree_4_3_u06_r10_network.node[26].content_store 	decision_no[26] 	8376
scalar tree_4_3_u06_r10_network.node[26].content_store 	decision_ratio[26] 	0.04774897680764
scalar tree_4_3_u06_r10_network.node[27].core_layer 	interests[27] 	12475
scalar tree_4_3_u06_r10_network.node[27].core_layer 	data[27] 	8871
scalar tree_4_3_u06_r10_network.node[27].content_store 	p_hit[27] 	0.28889779559118
scalar tree_4_3_u06_r10_network.node[27].content_store 	hits[27] 	3604
scalar tree_4_3_u06_r10_network.node[27].content_store 	misses[27] 	8871
scalar tree_4_3_u06_r10_network.node[27].content_store 	decision_yes[27] 	369
scalar tree_4_3_u06_r10_network.node[27].content_store 	decision_no[27] 	8502
scalar tree_4_3_u06_r10_network.node[27].content_store 	decision_ratio[27] 	0.04159621237741
scalar tree_4_3_u06_r10_network.node[28].core_layer 	interests[28] 	12378
scalar tree_4_3_u06_r10_network.node[28].core_layer 	data[28] 	8926
scalar tree_4_3_u06_r10_network.node[28].content_store 	p_hit[28] 	0.27888188721926
scalar tree_4_3_u06_r10_network.node[28].content_store 	hits[28] 	3452
scalar tree_4_3_u06_r10_network.node[28].content_store 	misses[28] 	8926
scalar tree_4_3_u06_r10_network.node[28].content_store 	decision_yes[28] 	391
scalar tree_4_3_u06_r10_network.node[28].content_store 	decision_no[28] 	8535
scalar tree_4_3_u06_r10_network.node[28].content_store 	decision_ratio[28] 	0.04380461572933
scalar tree_4_3_u06_r10_network.node[29].core_layer 	interests[29] 	12601
scalar tree_4_3_u06_r10_network.node[29].core_layer 	data[29] 	8867
scalar tree_4_3_u06_r10_network.node[29].content_store 	p_hit[29] 	0.29632568843743
scalar tree_4_3_u06_r10_network.node[29].content_store 	hits[29] 	3734
scalar tree_4_3_u06_r10_network.node[29].content_store 	misses[29] 	8867
scalar tree_4_3_u06_r10_network.node[29].content_store 	decision_yes[29] 	754
scalar tree_4_3_u06_r10_network.node[29].content_store 	decision_no[29] 	8113
scalar tree_4_3_u06_r10_network.node[29].content_store 	decision_ratio[29] 	0.085034397203113
scalar tree_4_3_u06_r10_network.node[30].core_layer 	interests[30] 	12190
scalar tree_4_3_u06_r10_network.node[30].core_layer 	data[30] 	8718
scalar tree_4_3_u06_r10_network.node[30].content_store 	p_hit[30] 	0.28482362592289
scalar tree_4_3_u06_r10_network.node[30].content_store 	hits[30] 	3472
scalar tree_4_3_u06_r10_network.node[30].content_store 	misses[30] 	8718
scalar tree_4_3_u06_r10_network.node[30].content_store 	decision_yes[30] 	409
scalar tree_4_3_u06_r10_network.node[30].content_store 	decision_no[30] 	8309
scalar tree_4_3_u06_r10_network.node[30].content_store 	decision_ratio[30] 	0.046914429915118
scalar tree_4_3_u06_r10_network.node[31].core_layer 	interests[31] 	12304
scalar tree_4_3_u06_r10_network.node[31].core_layer 	data[31] 	8838
scalar tree_4_3_u06_r10_network.node[31].content_store 	p_hit[31] 	0.28169700910273
scalar tree_4_3_u06_r10_network.node[31].content_store 	hits[31] 	3466
scalar tree_4_3_u06_r10_network.node[31].content_store 	misses[31] 	8838
scalar tree_4_3_u06_r10_network.node[31].content_store 	decision_yes[31] 	415
scalar tree_4_3_u06_r10_network.node[31].content_store 	decision_no[31] 	8423
scalar tree_4_3_u06_r10_network.node[31].content_store 	decision_ratio[31] 	0.046956324960398
scalar tree_4_3_u06_r10_network.node[32].core_layer 	interests[32] 	12298
scalar tree_4_3_u06_r10_network.node[32].core_layer 	data[32] 	8795
scalar tree_4_3_u06_r10_network.node[32].content_store 	p_hit[32] 	0.28484306391283
scalar tree_4_3_u06_r10_network.node[32].content_store 	hits[32] 	3503
scalar tree_4_3_u06_r10_network.node[32].content_store 	misses[32] 	8795
scalar tree_4_3_u06_r10_network.node[32].content_store 	decision_yes[32] 	408
scalar tree_4_3_u06_r10_network.node[32].content_store 	decision_no[32] 	8387
scalar tree_4_3_u06_r10_network.node[32].content_store 	decision_ratio[32] 	0.046389994314952
scalar tree_4_3_u06_r10_network.node[33].core_layer 	interests[33] 	12700
scalar tree_4_3_u06_r10_network.node[33].core_layer 	data[33] 	8987
scalar tree_4_3_u06_r10_network.node[33].content_store 	p_hit[33] 	0.29236220472441
scalar tree_4_3_u06_r10_network.node[33].content_store 	hits[33] 	3713
scalar tree_4_3_u06_r10_network.node[33].content_store 	misses[33] 	8987
scalar tree_4_3_u06_r10_network.node[33].content_store 	decision_yes[33] 	738
scalar tree_4_3_u06_r10_network.node[33].content_store 	decision_no[33] 	8249
scalar tree_4_3_u06_r10_network.node[33].content_store 	decision_ratio[33] 	0.082118615778347
scalar tree_4_3_u06_r10_network.node[34].core_layer 	interests[34] 	12432
scalar tree_4_3_u06_r10_network.node[34].core_layer 	data[34] 	8704
scalar tree_4_3_u06_r10_network.node[34].content_store 	p_hit[34] 	0.2998712998713
scalar tree_4_3_u06_r10_network.node[34].content_store 	hits[34] 	3728
scalar tree_4_3_u06_r10_network.node[34].content_store 	misses[34] 	8704
scalar tree_4_3_u06_r10_network.node[34].content_store 	decision_yes[34] 	654
scalar tree_4_3_u06_r10_network.node[34].content_store 	decision_no[34] 	8050
scalar tree_4_3_u06_r10_network.node[34].content_store 	decision_ratio[34] 	0.075137867647059
scalar tree_4_3_u06_r10_network.node[35].core_layer 	interests[35] 	12165
scalar tree_4_3_u06_r10_network.node[35].core_layer 	data[35] 	8813
scalar tree_4_3_u06_r10_network.node[35].content_store 	p_hit[35] 	0.27554459515002
scalar tree_4_3_u06_r10_network.node[35].content_store 	hits[35] 	3352
scalar tree_4_3_u06_r10_network.node[35].content_store 	misses[35] 	8813
scalar tree_4_3_u06_r10_network.node[35].content_store 	decision_yes[35] 	383
scalar tree_4_3_u06_r10_network.node[35].content_store 	decision_no[35] 	8430
scalar tree_4_3_u06_r10_network.node[35].content_store 	decision_ratio[35] 	0.043458527175763
scalar tree_4_3_u06_r10_network.node[36].core_layer 	interests[36] 	12493
scalar tree_4_3_u06_r10_network.node[36].core_layer 	data[36] 	8827
scalar tree_4_3_u06_r10_network.node[36].content_store 	p_hit[36] 	0.29344432882414
scalar tree_4_3_u06_r10_network.node[36].content_store 	hits[36] 	3666
scalar tree_4_3_u06_r10_network.node[36].content_store 	misses[36] 	8827
scalar tree_4_3_u06_r10_network.node[36].content_store 	decision_yes[36] 	663
scalar tree_4_3_u06_r10_network.node[36].content_store 	decision_no[36] 	8164
scalar tree_4_3_u06_r10_network.node[36].content_store 	decision_ratio[36] 	0.075110456553756
scalar tree_4_3_u06_r10_network.node[37].core_layer 	interests[37] 	12394
scalar tree_4_3_u06_r10_network.node[37].core_layer 	data[37] 	8727
scalar tree_4_3_u06_r10_network.node[37].content_store 	p_hit[37] 	0.2958689688559
scalar tree_4_3_u06_r10_network.node[37].content_store 	hits[37] 	3667
scalar tree_4_3_u06_r10_network.node[37].content_store 	misses[37] 	8727
scalar tree_4_3_u06_r10_network.node[37].content_store 	decision_yes[37] 	712
scalar tree_4_3_u06_r10_network.node[37].content_store 	decision_no[37] 	8015
scalar tree_4_3_u06_r10_network.node[37].content_store 	decision_ratio[37] 	0.081585882892174
scalar tree_4_3_u06_r10_network.node[38].core_layer 	interests[38] 	12299
scalar tree_4_3_u06_r10_network.node[38].core_layer 	data[38] 	8701
scalar tree_4_3_u06_r10_network.node[38].content_store 	p_hit[38] 	0.29246280185381
scalar tree_4_3_u06_r10_network.node[38].content_store 	hits[38] 	3597
scalar tree_4_3_u06_r10_network.node[38].content_store 	misses[38] 	8702
scalar tree_4_3_u06_r10_network.node[38].content_store 	decision_yes[38] 	364
scalar tree_4_3_u06_r10_network.node[38].content_store 	decision_no[38] 	8337
scalar tree_4_3_u06_r10_network.node[38].content_store 	decision_ratio[38] 	0.041834271922768
scalar tree_4_3_u06_r10_network.node[39].core_layer 	interests[39] 	12277
scalar tree_4_3_u06_r10_network.node[39].core_layer 	data[39] 	8746
scalar tree_4_3_u06_r10_network.node[39].content_store 	p_hit[39] 	0.28761097988108
scalar tree_4_3_u06_r10_network.node[39].content_store 	hits[39] 	3531
scalar tree_4_3_u06_r10_network.node[39].content_store 	misses[39] 	8746
scalar tree_4_3_u06_r10_network.node[39].content_store 	decision_yes[39] 	407
scalar tree_4_3_u06_r10_network.node[39].content_store 	decision_no[39] 	8339
scalar tree_4_3_u06_r10_network.node[39].content_store 	decision_ratio[39] 	0.046535559112737
scalar tree_4_3_u06_r10_network.client[13] 	hdistance[13] 	2.6944725311763
scalar tree_4_3_u06_r10_network.client[13] 	downloads[13] 	11868
scalar tree_4_3_u06_r10_network.client[13] 	avg_time[13] 	0.004142902301
scalar tree_4_3_u06_r10_network.client[14] 	hdistance[14] 	2.6721737671922
scalar tree_4_3_u06_r10_network.client[14] 	downloads[14] 	11924
scalar tree_4_3_u06_r10_network.client[14] 	avg_time[14] 	0.004110728726
scalar tree_4_3_u06_r10_network.client[15] 	hdistance[15] 	2.6869052631579
scalar tree_4_3_u06_r10_network.client[15] 	downloads[15] 	11875
scalar tree_4_3_u06_r10_network.client[15] 	avg_time[15] 	0.004121597028
scalar tree_4_3_u06_r10_network.client[16] 	hdistance[16] 	2.669928081619
scalar tree_4_3_u06_r10_network.client[16] 	downloads[16] 	11958
scalar tree_4_3_u06_r10_network.client[16] 	avg_time[16] 	0.004116404389
scalar tree_4_3_u06_r10_network.client[17] 	hdistance[17] 	2.7036206610198
scalar tree_4_3_u06_r10_network.client[17] 	downloads[17] 	12042
scalar tree_4_3_u06_r10_network.client[17] 	avg_time[17] 	0.004176213597
scalar tree_4_3_u06_r10_network.client[18] 	hdistance[18] 	2.6574166666667
scalar tree_4_3_u06_r10_network.client[18] 	downloads[18] 	12000
scalar tree_4_3_u06_r10_network.client[18] 	avg_time[18] 	0.004094497025
scalar tree_4_3_u06_r10_network.client[19] 	hdistance[19] 	2.7068431191892
scalar tree_4_3_u06_r10_network.client[19] 	downloads[19] 	11939
scalar tree_4_3_u06_r10_network.client[19] 	avg_time[19] 	0.004160946726
scalar tree_4_3_u06_r10_network.client[20] 	hdistance[20] 	2.7126681982278
scalar tree_4_3_u06_r10_network.client[20] 	downloads[20] 	12188
scalar tree_4_3_u06_r10_network.client[20] 	avg_time[20] 	0.004167210612
scalar tree_4_3_u06_r10_network.client[21] 	hdistance[21] 	2.7049789029536
scalar tree_4_3_u06_r10_network.client[21] 	downloads[21] 	11850
scalar tree_4_3_u06_r10_network.client[21] 	avg_time[21] 	0.004159650132
scalar tree_4_3_u06_r10_network.client[22] 	hdistance[22] 	2.6936068545065
scalar tree_4_3_u06_r10_network.client[22] 	downloads[22] 	12138
scalar tree_4_3_u06_r10_network.client[22] 	avg_time[22] 	0.004157679953
scalar tree_4_3_u06_r10_network.client[23] 	hdistance[23] 	2.6569709127382
scalar tree_4_3_u06_r10_network.client[23] 	downloads[23] 	11964
scalar tree_4_3_u06_r10_network.client[23] 	avg_time[23] 	0.004101361297
scalar tree_4_3_u06_r10_network.client[24] 	hdistance[24] 	2.643901628448
scalar tree_4_3_u06_r10_network.client[24] 	downloads[24] 	12036
scalar tree_4_3_u06_r10_network.client[24] 	avg_time[24] 	0.004073720382
scalar tree_4_3_u06_r10_network.client[25] 	hdistance[25] 	2.6803306061112
scalar tree_4_3_u06_r10_network.client[25] 	downloads[25] 	11978
scalar tree_4_3_u06_r10_network.client[25] 	avg_time[25] 	0.004127230265
scalar tree_4_3_u06_r10_network.client[26] 	hdistance[26] 	2.6846490142704
scalar tree_4_3_u06_r10_network.client[26] 	downloads[26] 	12123
scalar tree_4_3_u06_r10_network.client[26] 	avg_time[26] 	0.00413857653
scalar tree_4_3_u06_r10_network.client[27] 	hdistance[27] 	2.7029127802324
scalar tree_4_3_u06_r10_network.client[27] 	downloads[27] 	12222
scalar tree_4_3_u06_r10_network.client[27] 	avg_time[27] 	0.004161672583
scalar tree_4_3_u06_r10_network.client[28] 	hdistance[28] 	2.7228786251343
scalar tree_4_3_u06_r10_network.client[28] 	downloads[28] 	12103
scalar tree_4_3_u06_r10_network.client[28] 	avg_time[28] 	0.004193172214
scalar tree_4_3_u06_r10_network.client[29] 	hdistance[29] 	2.6567463634844
scalar tree_4_3_u06_r10_network.client[29] 	downloads[29] 	11962
scalar tree_4_3_u06_r10_network.client[29] 	avg_time[29] 	0.004095967615
scalar tree_4_3_u06_r10_network.client[30] 	hdistance[30] 	2.7015477792732
scalar tree_4_3_u06_r10_network.client[30] 	downloads[30] 	11888
scalar tree_4_3_u06_r10_network.client[30] 	avg_time[30] 	0.004162591926
scalar tree_4_3_u06_r10_network.client[31] 	hdistance[31] 	2.7283673808337
scalar tree_4_3_u06_r10_network.client[31] 	downloads[31] 	12042
scalar tree_4_3_u06_r10_network.client[31] 	avg_time[31] 	0.004187009109
scalar tree_4_3_u06_r10_network.client[32] 	hdistance[32] 	2.7085690515807
scalar tree_4_3_u06_r10_network.client[32] 	downloads[32] 	12020
scalar tree_4_3_u06_r10_network.client[32] 	avg_time[32] 	0.004162951273
scalar tree_4_3_u06_r10_network.client[33] 	hdistance[33] 	2.6903427818062
scalar tree_4_3_u06_r10_network.client[33] 	downloads[33] 	12136
scalar tree_4_3_u06_r10_network.client[33] 	avg_time[33] 	0.004126068178
scalar tree_4_3_u06_r10_network.client[34] 	hdistance[34] 	2.6566295546559
scalar tree_4_3_u06_r10_network.client[34] 	downloads[34] 	11856
scalar tree_4_3_u06_r10_network.client[34] 	avg_time[34] 	0.004088897155
scalar tree_4_3_u06_r10_network.client[35] 	hdistance[35] 	2.7061864265466
scalar tree_4_3_u06_r10_network.client[35] 	downloads[35] 	11994
scalar tree_4_3_u06_r10_network.client[35] 	avg_time[35] 	0.004177585797
scalar tree_4_3_u06_r10_network.client[36] 	hdistance[36] 	2.6951506987708
scalar tree_4_3_u06_r10_network.client[36] 	downloads[36] 	11878
scalar tree_4_3_u06_r10_network.client[36] 	avg_time[36] 	0.004143866956
scalar tree_4_3_u06_r10_network.client[37] 	hdistance[37] 	2.6886896201675
scalar tree_4_3_u06_r10_network.client[37] 	downloads[37] 	11821
scalar tree_4_3_u06_r10_network.client[37] 	avg_time[37] 	0.004120629803
scalar tree_4_3_u06_r10_network.client[38] 	hdistance[38] 	2.6856145599601
scalar tree_4_3_u06_r10_network.client[38] 	downloads[38] 	12033
scalar tree_4_3_u06_r10_network.client[38] 	avg_time[38] 	0.004124096988
scalar tree_4_3_u06_r10_network.client[39] 	hdistance[39] 	2.7018348623853
scalar tree_4_3_u06_r10_network.client[39] 	downloads[39] 	11990
scalar tree_4_3_u06_r10_network.client[39] 	avg_time[39] 	0.004149842522
