version 2
run General-10-20160830-18:44:18-19036
attr a 0.9
attr branch 3
attr cd lcd
attr configname General
attr cr lru
attr datetime 20160830-18:44:18
attr experiment General
attr fsize 1
attr inifile hw5115/scenario_E/omnetp.ini
attr iterationvars "$name=tree, $levels=5, $branch=3, $un=10, $rep=1, $cd=lcd, $cr=lru, $fsize=1, $a=0.9, $sl=spr, $ttl=1000, $variance=0.05"
attr iterationvars2 "$name=tree, $levels=5, $branch=3, $un=10, $rep=1, $cd=lcd, $cr=lru, $fsize=1, $a=0.9, $sl=spr, $ttl=1000, $variance=0.05, $repetition=0"
attr levels 5
attr measurement "$name=tree, $levels=5, $branch=3, $un=10, $rep=1, $cd=lcd, $cr=lru, $fsize=1, $a=0.9, $sl=spr, $ttl=1000, $variance=0.05"
attr name tree
attr network networks.${name}_${levels}_${branch}_u${un}_r${rep}_network
attr processid 19036
attr rep 1
attr repetition 0
attr replication #0
attr resultdir results
attr runnumber 10
attr seedset 1
attr sl spr
attr ttl 1000
attr un 10
attr variance 0.05

scalar . 	a 	0.9
scalar . 	branch 	3
scalar . 	fsize 	1
scalar . 	levels 	5
scalar . 	rep 	1
scalar . 	ttl 	1000
scalar . 	un 	10
scalar . 	variance 	0.05
scalar tree_5_3_u10_r1_network.content_distribution 	repo-0 	0
scalar tree_5_3_u10_r1_network.content_distribution 	client-0 	120
scalar tree_5_3_u10_r1_network.content_distribution 	client-1 	119
scalar tree_5_3_u10_r1_network.content_distribution 	client-2 	118
scalar tree_5_3_u10_r1_network.content_distribution 	client-3 	117
scalar tree_5_3_u10_r1_network.content_distribution 	client-4 	116
scalar tree_5_3_u10_r1_network.content_distribution 	client-5 	115
scalar tree_5_3_u10_r1_network.content_distribution 	client-6 	114
scalar tree_5_3_u10_r1_network.content_distribution 	client-7 	113
scalar tree_5_3_u10_r1_network.content_distribution 	client-8 	112
scalar tree_5_3_u10_r1_network.content_distribution 	client-9 	111
scalar tree_5_3_u10_r1_network.content_distribution 	client-10 	110
scalar tree_5_3_u10_r1_network.content_distribution 	client-11 	109
scalar tree_5_3_u10_r1_network.content_distribution 	client-12 	108
scalar tree_5_3_u10_r1_network.content_distribution 	client-13 	107
scalar tree_5_3_u10_r1_network.content_distribution 	client-14 	106
scalar tree_5_3_u10_r1_network.content_distribution 	client-15 	105
scalar tree_5_3_u10_r1_network.content_distribution 	client-16 	104
scalar tree_5_3_u10_r1_network.content_distribution 	client-17 	103
scalar tree_5_3_u10_r1_network.content_distribution 	client-18 	102
scalar tree_5_3_u10_r1_network.content_distribution 	client-19 	101
scalar tree_5_3_u10_r1_network.content_distribution 	client-20 	100
scalar tree_5_3_u10_r1_network.content_distribution 	client-21 	99
scalar tree_5_3_u10_r1_network.content_distribution 	client-22 	98
scalar tree_5_3_u10_r1_network.content_distribution 	client-23 	97
scalar tree_5_3_u10_r1_network.content_distribution 	client-24 	96
scalar tree_5_3_u10_r1_network.content_distribution 	client-25 	95
scalar tree_5_3_u10_r1_network.content_distribution 	client-26 	94
scalar tree_5_3_u10_r1_network.content_distribution 	client-27 	93
scalar tree_5_3_u10_r1_network.content_distribution 	client-28 	92
scalar tree_5_3_u10_r1_network.content_distribution 	client-29 	91
scalar tree_5_3_u10_r1_network.content_distribution 	client-30 	90
scalar tree_5_3_u10_r1_network.content_distribution 	client-31 	89
scalar tree_5_3_u10_r1_network.content_distribution 	client-32 	88
scalar tree_5_3_u10_r1_network.content_distribution 	client-33 	87
scalar tree_5_3_u10_r1_network.content_distribution 	client-34 	86
scalar tree_5_3_u10_r1_network.content_distribution 	client-35 	85
scalar tree_5_3_u10_r1_network.content_distribution 	client-36 	84
scalar tree_5_3_u10_r1_network.content_distribution 	client-37 	83
scalar tree_5_3_u10_r1_network.content_distribution 	client-38 	82
scalar tree_5_3_u10_r1_network.content_distribution 	client-39 	81
scalar tree_5_3_u10_r1_network.content_distribution 	client-40 	80
scalar tree_5_3_u10_r1_network.content_distribution 	client-41 	79
scalar tree_5_3_u10_r1_network.content_distribution 	client-42 	78
scalar tree_5_3_u10_r1_network.content_distribution 	client-43 	77
scalar tree_5_3_u10_r1_network.content_distribution 	client-44 	76
scalar tree_5_3_u10_r1_network.content_distribution 	client-45 	75
scalar tree_5_3_u10_r1_network.content_distribution 	client-46 	74
scalar tree_5_3_u10_r1_network.content_distribution 	client-47 	73
scalar tree_5_3_u10_r1_network.content_distribution 	client-48 	72
scalar tree_5_3_u10_r1_network.content_distribution 	client-49 	71
scalar tree_5_3_u10_r1_network.content_distribution 	client-50 	70
scalar tree_5_3_u10_r1_network.content_distribution 	client-51 	69
scalar tree_5_3_u10_r1_network.content_distribution 	client-52 	68
scalar tree_5_3_u10_r1_network.content_distribution 	client-53 	67
scalar tree_5_3_u10_r1_network.content_distribution 	client-54 	66
scalar tree_5_3_u10_r1_network.content_distribution 	client-55 	65
scalar tree_5_3_u10_r1_network.content_distribution 	client-56 	64
scalar tree_5_3_u10_r1_network.content_distribution 	client-57 	63
scalar tree_5_3_u10_r1_network.content_distribution 	client-58 	62
scalar tree_5_3_u10_r1_network.content_distribution 	client-59 	61
scalar tree_5_3_u10_r1_network.content_distribution 	client-60 	60
scalar tree_5_3_u10_r1_network.content_distribution 	client-61 	59
scalar tree_5_3_u10_r1_network.content_distribution 	client-62 	58
scalar tree_5_3_u10_r1_network.content_distribution 	client-63 	57
scalar tree_5_3_u10_r1_network.content_distribution 	client-64 	56
scalar tree_5_3_u10_r1_network.content_distribution 	client-65 	55
scalar tree_5_3_u10_r1_network.content_distribution 	client-66 	54
scalar tree_5_3_u10_r1_network.content_distribution 	client-67 	53
scalar tree_5_3_u10_r1_network.content_distribution 	client-68 	52
scalar tree_5_3_u10_r1_network.content_distribution 	client-69 	51
scalar tree_5_3_u10_r1_network.content_distribution 	client-70 	50
scalar tree_5_3_u10_r1_network.content_distribution 	client-71 	49
scalar tree_5_3_u10_r1_network.content_distribution 	client-72 	48
scalar tree_5_3_u10_r1_network.content_distribution 	client-73 	47
scalar tree_5_3_u10_r1_network.content_distribution 	client-74 	46
scalar tree_5_3_u10_r1_network.content_distribution 	client-75 	45
scalar tree_5_3_u10_r1_network.content_distribution 	client-76 	44
scalar tree_5_3_u10_r1_network.content_distribution 	client-77 	43
scalar tree_5_3_u10_r1_network.content_distribution 	client-78 	42
scalar tree_5_3_u10_r1_network.content_distribution 	client-79 	41
scalar tree_5_3_u10_r1_network.content_distribution 	client-80 	40
scalar tree_5_3_u10_r1_network.content_distribution 	repo-0_card 	100000
scalar tree_5_3_u10_r1_network.content_distribution 	repo-0_price 	0
scalar tree_5_3_u10_r1_network.statistics 	stabilization_time 	5945.3
scalar tree_5_3_u10_r1_network.statistics 	p_hit 	0.18822257062626
scalar tree_5_3_u10_r1_network.statistics 	interests 	30583.148760331
scalar tree_5_3_u10_r1_network.statistics 	data 	22545.94214876
scalar tree_5_3_u10_r1_network.statistics 	hdistance 	3.4775228267579
scalar tree_5_3_u10_r1_network.statistics 	avg_time 	0.00561069398
scalar tree_5_3_u10_r1_network.statistics 	downloads 	972484
scalar tree_5_3_u10_r1_network.statistics 	total_cost 	0
scalar tree_5_3_u10_r1_network.statistics 	total_replicas 	100000
scalar tree_5_3_u10_r1_network.statistics 	inner_hit 	0.32804241509372
scalar tree_5_3_u10_r1_network.node[0].core_layer 	interests[0] 	659016
scalar tree_5_3_u10_r1_network.node[0].core_layer 	repo_load[0] 	653468
scalar tree_5_3_u10_r1_network.node[0].core_layer 	data[0] 	0
scalar tree_5_3_u10_r1_network.node[0].core_layer 	repo_int[0] 	653468
scalar tree_5_3_u10_r1_network.node[0].content_store 	p_hit[0] 	0.0084186119912111
scalar tree_5_3_u10_r1_network.node[0].content_store 	hits[0] 	5548
scalar tree_5_3_u10_r1_network.node[0].content_store 	misses[0] 	653468
scalar tree_5_3_u10_r1_network.node[0].content_store 	decision_yes[0] 	653468
scalar tree_5_3_u10_r1_network.node[0].content_store 	decision_no[0] 	0
scalar tree_5_3_u10_r1_network.node[0].content_store 	decision_ratio[0] 	1
scalar tree_5_3_u10_r1_network.node[1].core_layer 	interests[1] 	535519
scalar tree_5_3_u10_r1_network.node[1].core_layer 	data[1] 	527030
scalar tree_5_3_u10_r1_network.node[1].content_store 	p_hit[1] 	0.015734268998859
scalar tree_5_3_u10_r1_network.node[1].content_store 	hits[1] 	8426
scalar tree_5_3_u10_r1_network.node[1].content_store 	misses[1] 	527093
scalar tree_5_3_u10_r1_network.node[1].content_store 	decision_yes[1] 	4454
scalar tree_5_3_u10_r1_network.node[1].content_store 	decision_no[1] 	522576
scalar tree_5_3_u10_r1_network.node[1].content_store 	decision_ratio[1] 	0.0084511318141282
scalar tree_5_3_u10_r1_network.node[2].core_layer 	interests[2] 	125174
scalar tree_5_3_u10_r1_network.node[2].core_layer 	data[2] 	123540
scalar tree_5_3_u10_r1_network.node[2].content_store 	p_hit[2] 	0.013013884672536
scalar tree_5_3_u10_r1_network.node[2].content_store 	hits[2] 	1629
scalar tree_5_3_u10_r1_network.node[2].content_store 	misses[2] 	123545
scalar tree_5_3_u10_r1_network.node[2].content_store 	decision_yes[2] 	1017
scalar tree_5_3_u10_r1_network.node[2].content_store 	decision_no[2] 	122523
scalar tree_5_3_u10_r1_network.node[2].content_store 	decision_ratio[2] 	0.0082321515298689
scalar tree_5_3_u10_r1_network.node[3].core_layer 	interests[3] 	8511
scalar tree_5_3_u10_r1_network.node[3].core_layer 	data[3] 	8443
scalar tree_5_3_u10_r1_network.node[3].content_store 	p_hit[3] 	0.0079896604394313
scalar tree_5_3_u10_r1_network.node[3].content_store 	hits[3] 	68
scalar tree_5_3_u10_r1_network.node[3].content_store 	misses[3] 	8443
scalar tree_5_3_u10_r1_network.node[3].content_store 	decision_yes[3] 	77
scalar tree_5_3_u10_r1_network.node[3].content_store 	decision_no[3] 	8366
scalar tree_5_3_u10_r1_network.node[3].content_store 	decision_ratio[3] 	0.00911998104939
scalar tree_5_3_u10_r1_network.node[4].core_layer 	interests[4] 	160391
scalar tree_5_3_u10_r1_network.node[4].core_layer 	data[4] 	156124
scalar tree_5_3_u10_r1_network.node[4].content_store 	p_hit[4] 	0.026528919951868
scalar tree_5_3_u10_r1_network.node[4].content_store 	hits[4] 	4255
scalar tree_5_3_u10_r1_network.node[4].content_store 	misses[4] 	156136
scalar tree_5_3_u10_r1_network.node[4].content_store 	decision_yes[4] 	2339
scalar tree_5_3_u10_r1_network.node[4].content_store 	decision_no[4] 	153785
scalar tree_5_3_u10_r1_network.node[4].content_store 	decision_ratio[4] 	0.014981681227742
scalar tree_5_3_u10_r1_network.node[5].core_layer 	interests[5] 	58956
scalar tree_5_3_u10_r1_network.node[5].core_layer 	data[5] 	57368
scalar tree_5_3_u10_r1_network.node[5].content_store 	p_hit[5] 	0.026918379808671
scalar tree_5_3_u10_r1_network.node[5].content_store 	hits[5] 	1587
scalar tree_5_3_u10_r1_network.node[5].content_store 	misses[5] 	57369
scalar tree_5_3_u10_r1_network.node[5].content_store 	decision_yes[5] 	1181
scalar tree_5_3_u10_r1_network.node[5].content_store 	decision_no[5] 	56187
scalar tree_5_3_u10_r1_network.node[5].content_store 	decision_ratio[5] 	0.020586389624878
scalar tree_5_3_u10_r1_network.node[6].core_layer 	interests[6] 	8512
scalar tree_5_3_u10_r1_network.node[6].core_layer 	data[6] 	8328
scalar tree_5_3_u10_r1_network.node[6].content_store 	p_hit[6] 	0.021734022556391
scalar tree_5_3_u10_r1_network.node[6].content_store 	hits[6] 	185
scalar tree_5_3_u10_r1_network.node[6].content_store 	misses[6] 	8327
scalar tree_5_3_u10_r1_network.node[6].content_store 	decision_yes[6] 	229
scalar tree_5_3_u10_r1_network.node[6].content_store 	decision_no[6] 	8099
scalar tree_5_3_u10_r1_network.node[6].content_store 	decision_ratio[6] 	0.027497598463016
scalar tree_5_3_u10_r1_network.node[7].core_layer 	interests[7] 	161111
scalar tree_5_3_u10_r1_network.node[7].core_layer 	data[7] 	156873
scalar tree_5_3_u10_r1_network.node[7].content_store 	p_hit[7] 	0.026248983619989
scalar tree_5_3_u10_r1_network.node[7].content_store 	hits[7] 	4229
scalar tree_5_3_u10_r1_network.node[7].content_store 	misses[7] 	156882
scalar tree_5_3_u10_r1_network.node[7].content_store 	decision_yes[7] 	2347
scalar tree_5_3_u10_r1_network.node[7].content_store 	decision_no[7] 	154526
scalar tree_5_3_u10_r1_network.node[7].content_store 	decision_ratio[7] 	0.01496114691502
scalar tree_5_3_u10_r1_network.node[8].core_layer 	interests[8] 	59955
scalar tree_5_3_u10_r1_network.node[8].core_layer 	data[8] 	58715
scalar tree_5_3_u10_r1_network.node[8].content_store 	p_hit[8] 	0.020648819948295
scalar tree_5_3_u10_r1_network.node[8].content_store 	hits[8] 	1238
scalar tree_5_3_u10_r1_network.node[8].content_store 	misses[8] 	58717
scalar tree_5_3_u10_r1_network.node[8].content_store 	decision_yes[8] 	719
scalar tree_5_3_u10_r1_network.node[8].content_store 	decision_no[8] 	57996
scalar tree_5_3_u10_r1_network.node[8].content_store 	decision_ratio[8] 	0.012245593119305
scalar tree_5_3_u10_r1_network.node[9].core_layer 	interests[9] 	8496
scalar tree_5_3_u10_r1_network.node[9].core_layer 	data[9] 	8313
scalar tree_5_3_u10_r1_network.node[9].content_store 	p_hit[9] 	0.021539548022599
scalar tree_5_3_u10_r1_network.node[9].content_store 	hits[9] 	183
scalar tree_5_3_u10_r1_network.node[9].content_store 	misses[9] 	8313
scalar tree_5_3_u10_r1_network.node[9].content_store 	decision_yes[9] 	215
scalar tree_5_3_u10_r1_network.node[9].content_store 	decision_no[9] 	8098
scalar tree_5_3_u10_r1_network.node[9].content_store 	decision_ratio[9] 	0.025863105978588
scalar tree_5_3_u10_r1_network.node[10].core_layer 	interests[10] 	161006
scalar tree_5_3_u10_r1_network.node[10].core_layer 	data[10] 	156825
scalar tree_5_3_u10_r1_network.node[10].content_store 	p_hit[10] 	0.025918288759425
scalar tree_5_3_u10_r1_network.node[10].content_store 	hits[10] 	4173
scalar tree_5_3_u10_r1_network.node[10].content_store 	misses[10] 	156833
scalar tree_5_3_u10_r1_network.node[10].content_store 	decision_yes[10] 	2330
scalar tree_5_3_u10_r1_network.node[10].content_store 	decision_no[10] 	154495
scalar tree_5_3_u10_r1_network.node[10].content_store 	decision_ratio[10] 	0.014857325043839
scalar tree_5_3_u10_r1_network.node[11].core_layer 	interests[11] 	59324
scalar tree_5_3_u10_r1_network.node[11].core_layer 	data[11] 	58145
scalar tree_5_3_u10_r1_network.node[11].content_store 	p_hit[11] 	0.019857056166138
scalar tree_5_3_u10_r1_network.node[11].content_store 	hits[11] 	1178
scalar tree_5_3_u10_r1_network.node[11].content_store 	misses[11] 	58146
scalar tree_5_3_u10_r1_network.node[11].content_store 	decision_yes[11] 	695
scalar tree_5_3_u10_r1_network.node[11].content_store 	decision_no[11] 	57450
scalar tree_5_3_u10_r1_network.node[11].content_store 	decision_ratio[11] 	0.011952876429616
scalar tree_5_3_u10_r1_network.node[12].core_layer 	interests[12] 	8595
scalar tree_5_3_u10_r1_network.node[12].core_layer 	data[12] 	8511
scalar tree_5_3_u10_r1_network.node[12].content_store 	p_hit[12] 	0.0097731239092496
scalar tree_5_3_u10_r1_network.node[12].content_store 	hits[12] 	84
scalar tree_5_3_u10_r1_network.node[12].content_store 	misses[12] 	8511
scalar tree_5_3_u10_r1_network.node[12].content_store 	decision_yes[12] 	68
scalar tree_5_3_u10_r1_network.node[12].content_store 	decision_no[12] 	8443
scalar tree_5_3_u10_r1_network.node[12].content_store 	decision_ratio[12] 	0.0079896604394313
scalar tree_5_3_u10_r1_network.node[13].core_layer 	interests[13] 	43900
scalar tree_5_3_u10_r1_network.node[13].core_layer 	data[13] 	42120
scalar tree_5_3_u10_r1_network.node[13].content_store 	p_hit[13] 	0.040546697038724
scalar tree_5_3_u10_r1_network.node[13].content_store 	hits[13] 	1780
scalar tree_5_3_u10_r1_network.node[13].content_store 	misses[13] 	42120
scalar tree_5_3_u10_r1_network.node[13].content_store 	decision_yes[13] 	1089
scalar tree_5_3_u10_r1_network.node[13].content_store 	decision_no[13] 	41031
scalar tree_5_3_u10_r1_network.node[13].content_store 	decision_ratio[13] 	0.025854700854701
scalar tree_5_3_u10_r1_network.node[14].core_layer 	interests[14] 	26632
scalar tree_5_3_u10_r1_network.node[14].core_layer 	data[14] 	25593
scalar tree_5_3_u10_r1_network.node[14].content_store 	p_hit[14] 	0.039013217182337
scalar tree_5_3_u10_r1_network.node[14].content_store 	hits[14] 	1039
scalar tree_5_3_u10_r1_network.node[14].content_store 	misses[14] 	25593
scalar tree_5_3_u10_r1_network.node[14].content_store 	decision_yes[14] 	717
scalar tree_5_3_u10_r1_network.node[14].content_store 	decision_no[14] 	24876
scalar tree_5_3_u10_r1_network.node[14].content_store 	decision_ratio[14] 	0.028015472980893
scalar tree_5_3_u10_r1_network.node[15].core_layer 	interests[15] 	8661
scalar tree_5_3_u10_r1_network.node[15].core_layer 	data[15] 	8379
scalar tree_5_3_u10_r1_network.node[15].content_store 	p_hit[15] 	0.032675210714698
scalar tree_5_3_u10_r1_network.node[15].content_store 	hits[15] 	283
scalar tree_5_3_u10_r1_network.node[15].content_store 	misses[15] 	8378
scalar tree_5_3_u10_r1_network.node[15].content_store 	decision_yes[15] 	283
scalar tree_5_3_u10_r1_network.node[15].content_store 	decision_no[15] 	8096
scalar tree_5_3_u10_r1_network.node[15].content_store 	decision_ratio[15] 	0.033774913474162
scalar tree_5_3_u10_r1_network.node[16].core_layer 	interests[16] 	43805
scalar tree_5_3_u10_r1_network.node[16].core_layer 	data[16] 	42019
scalar tree_5_3_u10_r1_network.node[16].content_store 	p_hit[16] 	0.040748772971122
scalar tree_5_3_u10_r1_network.node[16].content_store 	hits[16] 	1785
scalar tree_5_3_u10_r1_network.node[16].content_store 	misses[16] 	42020
scalar tree_5_3_u10_r1_network.node[16].content_store 	decision_yes[16] 	1087
scalar tree_5_3_u10_r1_network.node[16].content_store 	decision_no[16] 	40932
scalar tree_5_3_u10_r1_network.node[16].content_store 	decision_ratio[16] 	0.02586924962517
scalar tree_5_3_u10_r1_network.node[17].core_layer 	interests[17] 	26104
scalar tree_5_3_u10_r1_network.node[17].core_layer 	data[17] 	25135
scalar tree_5_3_u10_r1_network.node[17].content_store 	p_hit[17] 	0.037120747778118
scalar tree_5_3_u10_r1_network.node[17].content_store 	hits[17] 	969
scalar tree_5_3_u10_r1_network.node[17].content_store 	misses[17] 	25135
scalar tree_5_3_u10_r1_network.node[17].content_store 	decision_yes[17] 	630
scalar tree_5_3_u10_r1_network.node[17].content_store 	decision_no[17] 	24505
scalar tree_5_3_u10_r1_network.node[17].content_store 	decision_ratio[17] 	0.02506465088522
scalar tree_5_3_u10_r1_network.node[18].core_layer 	interests[18] 	8753
scalar tree_5_3_u10_r1_network.node[18].core_layer 	data[18] 	8454
scalar tree_5_3_u10_r1_network.node[18].content_store 	p_hit[18] 	0.034159716668571
scalar tree_5_3_u10_r1_network.node[18].content_store 	hits[18] 	299
scalar tree_5_3_u10_r1_network.node[18].content_store 	misses[18] 	8454
scalar tree_5_3_u10_r1_network.node[18].content_store 	decision_yes[18] 	313
scalar tree_5_3_u10_r1_network.node[18].content_store 	decision_no[18] 	8141
scalar tree_5_3_u10_r1_network.node[18].content_store 	decision_ratio[18] 	0.037023894014668
scalar tree_5_3_u10_r1_network.node[19].core_layer 	interests[19] 	44097
scalar tree_5_3_u10_r1_network.node[19].core_layer 	data[19] 	42281
scalar tree_5_3_u10_r1_network.node[19].content_store 	p_hit[19] 	0.041136585255233
scalar tree_5_3_u10_r1_network.node[19].content_store 	hits[19] 	1814
scalar tree_5_3_u10_r1_network.node[19].content_store 	misses[19] 	42283
scalar tree_5_3_u10_r1_network.node[19].content_store 	decision_yes[19] 	1079
scalar tree_5_3_u10_r1_network.node[19].content_store 	decision_no[19] 	41202
scalar tree_5_3_u10_r1_network.node[19].content_store 	decision_ratio[19] 	0.025519736997706
scalar tree_5_3_u10_r1_network.node[20].core_layer 	interests[20] 	26318
scalar tree_5_3_u10_r1_network.node[20].core_layer 	data[20] 	25367
scalar tree_5_3_u10_r1_network.node[20].content_store 	p_hit[20] 	0.036134964662968
scalar tree_5_3_u10_r1_network.node[20].content_store 	hits[20] 	951
scalar tree_5_3_u10_r1_network.node[20].content_store 	misses[20] 	25367
scalar tree_5_3_u10_r1_network.node[20].content_store 	decision_yes[20] 	644
scalar tree_5_3_u10_r1_network.node[20].content_store 	decision_no[20] 	24723
scalar tree_5_3_u10_r1_network.node[20].content_store 	decision_ratio[20] 	0.025387314227146
scalar tree_5_3_u10_r1_network.node[21].core_layer 	interests[21] 	8764
scalar tree_5_3_u10_r1_network.node[21].core_layer 	data[21] 	8513
scalar tree_5_3_u10_r1_network.node[21].content_store 	p_hit[21] 	0.028753993610224
scalar tree_5_3_u10_r1_network.node[21].content_store 	hits[21] 	252
scalar tree_5_3_u10_r1_network.node[21].content_store 	misses[21] 	8512
scalar tree_5_3_u10_r1_network.node[21].content_store 	decision_yes[21] 	185
scalar tree_5_3_u10_r1_network.node[21].content_store 	decision_no[21] 	8328
scalar tree_5_3_u10_r1_network.node[21].content_store 	decision_ratio[21] 	0.021731469517209
scalar tree_5_3_u10_r1_network.node[22].core_layer 	interests[22] 	43782
scalar tree_5_3_u10_r1_network.node[22].core_layer 	data[22] 	42035
scalar tree_5_3_u10_r1_network.node[22].content_store 	p_hit[22] 	0.039902242930885
scalar tree_5_3_u10_r1_network.node[22].content_store 	hits[22] 	1747
scalar tree_5_3_u10_r1_network.node[22].content_store 	misses[22] 	42035
scalar tree_5_3_u10_r1_network.node[22].content_store 	decision_yes[22] 	1066
scalar tree_5_3_u10_r1_network.node[22].content_store 	decision_no[22] 	40969
scalar tree_5_3_u10_r1_network.node[22].content_store 	decision_ratio[22] 	0.025359819198287
scalar tree_5_3_u10_r1_network.node[23].core_layer 	interests[23] 	26338
scalar tree_5_3_u10_r1_network.node[23].core_layer 	data[23] 	25355
scalar tree_5_3_u10_r1_network.node[23].content_store 	p_hit[23] 	0.037284531855114
scalar tree_5_3_u10_r1_network.node[23].content_store 	hits[23] 	982
scalar tree_5_3_u10_r1_network.node[23].content_store 	misses[23] 	25356
scalar tree_5_3_u10_r1_network.node[23].content_store 	decision_yes[23] 	749
scalar tree_5_3_u10_r1_network.node[23].content_store 	decision_no[23] 	24606
scalar tree_5_3_u10_r1_network.node[23].content_store 	decision_ratio[23] 	0.029540524551371
scalar tree_5_3_u10_r1_network.node[24].core_layer 	interests[24] 	8906
scalar tree_5_3_u10_r1_network.node[24].core_layer 	data[24] 	8615
scalar tree_5_3_u10_r1_network.node[24].content_store 	p_hit[24] 	0.03267460139232
scalar tree_5_3_u10_r1_network.node[24].content_store 	hits[24] 	291
scalar tree_5_3_u10_r1_network.node[24].content_store 	misses[24] 	8615
scalar tree_5_3_u10_r1_network.node[24].content_store 	decision_yes[24] 	299
scalar tree_5_3_u10_r1_network.node[24].content_store 	decision_no[24] 	8316
scalar tree_5_3_u10_r1_network.node[24].content_store 	decision_ratio[24] 	0.034706906558328
scalar tree_5_3_u10_r1_network.node[25].core_layer 	interests[25] 	44193
scalar tree_5_3_u10_r1_network.node[25].core_layer 	data[25] 	42363
scalar tree_5_3_u10_r1_network.node[25].content_store 	p_hit[25] 	0.041386644943769
scalar tree_5_3_u10_r1_network.node[25].content_store 	hits[25] 	1829
scalar tree_5_3_u10_r1_network.node[25].content_store 	misses[25] 	42364
scalar tree_5_3_u10_r1_network.node[25].content_store 	decision_yes[25] 	1050
scalar tree_5_3_u10_r1_network.node[25].content_store 	decision_no[25] 	41313
scalar tree_5_3_u10_r1_network.node[25].content_store 	decision_ratio[25] 	0.024785780043906
scalar tree_5_3_u10_r1_network.node[26].core_layer 	interests[26] 	26454
scalar tree_5_3_u10_r1_network.node[26].core_layer 	data[26] 	25569
scalar tree_5_3_u10_r1_network.node[26].content_store 	p_hit[26] 	0.033416496560067
scalar tree_5_3_u10_r1_network.node[26].content_store 	hits[26] 	884
scalar tree_5_3_u10_r1_network.node[26].content_store 	misses[26] 	25570
scalar tree_5_3_u10_r1_network.node[26].content_store 	decision_yes[26] 	487
scalar tree_5_3_u10_r1_network.node[26].content_store 	decision_no[26] 	25082
scalar tree_5_3_u10_r1_network.node[26].content_store 	decision_ratio[26] 	0.019046501623059
scalar tree_5_3_u10_r1_network.node[27].core_layer 	interests[27] 	8964
scalar tree_5_3_u10_r1_network.node[27].core_layer 	data[27] 	8686
scalar tree_5_3_u10_r1_network.node[27].content_store 	p_hit[27] 	0.031012940651495
scalar tree_5_3_u10_r1_network.node[27].content_store 	hits[27] 	278
scalar tree_5_3_u10_r1_network.node[27].content_store 	misses[27] 	8686
scalar tree_5_3_u10_r1_network.node[27].content_store 	decision_yes[27] 	248
scalar tree_5_3_u10_r1_network.node[27].content_store 	decision_no[27] 	8438
scalar tree_5_3_u10_r1_network.node[27].content_store 	decision_ratio[27] 	0.02855169237854
scalar tree_5_3_u10_r1_network.node[28].core_layer 	interests[28] 	44597
scalar tree_5_3_u10_r1_network.node[28].core_layer 	data[28] 	42743
scalar tree_5_3_u10_r1_network.node[28].content_store 	p_hit[28] 	0.041572303069713
scalar tree_5_3_u10_r1_network.node[28].content_store 	hits[28] 	1854
scalar tree_5_3_u10_r1_network.node[28].content_store 	misses[28] 	42743
scalar tree_5_3_u10_r1_network.node[28].content_store 	decision_yes[28] 	1065
scalar tree_5_3_u10_r1_network.node[28].content_store 	decision_no[28] 	41678
scalar tree_5_3_u10_r1_network.node[28].content_store 	decision_ratio[28] 	0.024916360573661
scalar tree_5_3_u10_r1_network.node[29].core_layer 	interests[29] 	26594
scalar tree_5_3_u10_r1_network.node[29].core_layer 	data[29] 	25698
scalar tree_5_3_u10_r1_network.node[29].content_store 	p_hit[29] 	0.033616605249304
scalar tree_5_3_u10_r1_network.node[29].content_store 	hits[29] 	894
scalar tree_5_3_u10_r1_network.node[29].content_store 	misses[29] 	25700
scalar tree_5_3_u10_r1_network.node[29].content_store 	decision_yes[29] 	503
scalar tree_5_3_u10_r1_network.node[29].content_store 	decision_no[29] 	25195
scalar tree_5_3_u10_r1_network.node[29].content_store 	decision_ratio[29] 	0.019573507665966
scalar tree_5_3_u10_r1_network.node[30].core_layer 	interests[30] 	8742
scalar tree_5_3_u10_r1_network.node[30].core_layer 	data[30] 	8496
scalar tree_5_3_u10_r1_network.node[30].content_store 	p_hit[30] 	0.028140013726836
scalar tree_5_3_u10_r1_network.node[30].content_store 	hits[30] 	246
scalar tree_5_3_u10_r1_network.node[30].content_store 	misses[30] 	8496
scalar tree_5_3_u10_r1_network.node[30].content_store 	decision_yes[30] 	183
scalar tree_5_3_u10_r1_network.node[30].content_store 	decision_no[30] 	8313
scalar tree_5_3_u10_r1_network.node[30].content_store 	decision_ratio[30] 	0.021539548022599
scalar tree_5_3_u10_r1_network.node[31].core_layer 	interests[31] 	44093
scalar tree_5_3_u10_r1_network.node[31].core_layer 	data[31] 	42230
scalar tree_5_3_u10_r1_network.node[31].content_store 	p_hit[31] 	0.04220624588937
scalar tree_5_3_u10_r1_network.node[31].content_store 	hits[31] 	1861
scalar tree_5_3_u10_r1_network.node[31].content_store 	misses[31] 	42232
scalar tree_5_3_u10_r1_network.node[31].content_store 	decision_yes[31] 	1054
scalar tree_5_3_u10_r1_network.node[31].content_store 	decision_no[31] 	41176
scalar tree_5_3_u10_r1_network.node[31].content_store 	decision_ratio[31] 	0.024958560265214
scalar tree_5_3_u10_r1_network.node[32].core_layer 	interests[32] 	26502
scalar tree_5_3_u10_r1_network.node[32].core_layer 	data[32] 	25517
scalar tree_5_3_u10_r1_network.node[32].content_store 	p_hit[32] 	0.037167006263678
scalar tree_5_3_u10_r1_network.node[32].content_store 	hits[32] 	985
scalar tree_5_3_u10_r1_network.node[32].content_store 	misses[32] 	25517
scalar tree_5_3_u10_r1_network.node[32].content_store 	decision_yes[32] 	756
scalar tree_5_3_u10_r1_network.node[32].content_store 	decision_no[32] 	24761
scalar tree_5_3_u10_r1_network.node[32].content_store 	decision_ratio[32] 	0.029627307285339
scalar tree_5_3_u10_r1_network.node[33].core_layer 	interests[33] 	8742
scalar tree_5_3_u10_r1_network.node[33].core_layer 	data[33] 	8462
scalar tree_5_3_u10_r1_network.node[33].content_store 	p_hit[33] 	0.032143674216426
scalar tree_5_3_u10_r1_network.node[33].content_store 	hits[33] 	281
scalar tree_5_3_u10_r1_network.node[33].content_store 	misses[33] 	8461
scalar tree_5_3_u10_r1_network.node[33].content_store 	decision_yes[33] 	290
scalar tree_5_3_u10_r1_network.node[33].content_store 	decision_no[33] 	8172
scalar tree_5_3_u10_r1_network.node[33].content_store 	decision_ratio[33] 	0.034270857953203
scalar tree_5_3_u10_r1_network.node[34].core_layer 	interests[34] 	44430
scalar tree_5_3_u10_r1_network.node[34].core_layer 	data[34] 	42569
scalar tree_5_3_u10_r1_network.node[34].content_store 	p_hit[34] 	0.041841098356966
scalar tree_5_3_u10_r1_network.node[34].content_store 	hits[34] 	1859
scalar tree_5_3_u10_r1_network.node[34].content_store 	misses[34] 	42571
scalar tree_5_3_u10_r1_network.node[34].content_store 	decision_yes[34] 	1013
scalar tree_5_3_u10_r1_network.node[34].content_store 	decision_no[34] 	41556
scalar tree_5_3_u10_r1_network.node[34].content_store 	decision_ratio[34] 	0.023796659540981
scalar tree_5_3_u10_r1_network.node[35].core_layer 	interests[35] 	26145
scalar tree_5_3_u10_r1_network.node[35].core_layer 	data[35] 	25289
scalar tree_5_3_u10_r1_network.node[35].content_store 	p_hit[35] 	0.032702237521515
scalar tree_5_3_u10_r1_network.node[35].content_store 	hits[35] 	855
scalar tree_5_3_u10_r1_network.node[35].content_store 	misses[35] 	25290
scalar tree_5_3_u10_r1_network.node[35].content_store 	decision_yes[35] 	488
scalar tree_5_3_u10_r1_network.node[35].content_store 	decision_no[35] 	24801
scalar tree_5_3_u10_r1_network.node[35].content_store 	decision_ratio[35] 	0.019296927517893
scalar tree_5_3_u10_r1_network.node[36].core_layer 	interests[36] 	8782
scalar tree_5_3_u10_r1_network.node[36].core_layer 	data[36] 	8522
scalar tree_5_3_u10_r1_network.node[36].content_store 	p_hit[36] 	0.029606012297882
scalar tree_5_3_u10_r1_network.node[36].content_store 	hits[36] 	260
scalar tree_5_3_u10_r1_network.node[36].content_store 	misses[36] 	8522
scalar tree_5_3_u10_r1_network.node[36].content_store 	decision_yes[36] 	212
scalar tree_5_3_u10_r1_network.node[36].content_store 	decision_no[36] 	8310
scalar tree_5_3_u10_r1_network.node[36].content_store 	decision_ratio[36] 	0.024876789486036
scalar tree_5_3_u10_r1_network.node[37].core_layer 	interests[37] 	44034
scalar tree_5_3_u10_r1_network.node[37].core_layer 	data[37] 	42227
scalar tree_5_3_u10_r1_network.node[37].content_store 	p_hit[37] 	0.04096834264432
scalar tree_5_3_u10_r1_network.node[37].content_store 	hits[37] 	1804
scalar tree_5_3_u10_r1_network.node[37].content_store 	misses[37] 	42230
scalar tree_5_3_u10_r1_network.node[37].content_store 	decision_yes[37] 	1060
scalar tree_5_3_u10_r1_network.node[37].content_store 	decision_no[37] 	41167
scalar tree_5_3_u10_r1_network.node[37].content_store 	decision_ratio[37] 	0.025102422620598
scalar tree_5_3_u10_r1_network.node[38].core_layer 	interests[38] 	26394
scalar tree_5_3_u10_r1_network.node[38].core_layer 	data[38] 	25513
scalar tree_5_3_u10_r1_network.node[38].content_store 	p_hit[38] 	0.033378798211715
scalar tree_5_3_u10_r1_network.node[38].content_store 	hits[38] 	881
scalar tree_5_3_u10_r1_network.node[38].content_store 	misses[38] 	25513
scalar tree_5_3_u10_r1_network.node[38].content_store 	decision_yes[38] 	478
scalar tree_5_3_u10_r1_network.node[38].content_store 	decision_no[38] 	25035
scalar tree_5_3_u10_r1_network.node[38].content_store 	decision_ratio[38] 	0.018735546584094
scalar tree_5_3_u10_r1_network.node[39].core_layer 	interests[39] 	8774
scalar tree_5_3_u10_r1_network.node[39].core_layer 	data[39] 	8595
scalar tree_5_3_u10_r1_network.node[39].content_store 	p_hit[39] 	0.020401185320264
scalar tree_5_3_u10_r1_network.node[39].content_store 	hits[39] 	179
scalar tree_5_3_u10_r1_network.node[39].content_store 	misses[39] 	8595
scalar tree_5_3_u10_r1_network.node[39].content_store 	decision_yes[39] 	84
scalar tree_5_3_u10_r1_network.node[39].content_store 	decision_no[39] 	8511
scalar tree_5_3_u10_r1_network.node[39].content_store 	decision_ratio[39] 	0.0097731239092496
scalar tree_5_3_u10_r1_network.node[40].core_layer 	interests[40] 	12170
scalar tree_5_3_u10_r1_network.node[40].core_layer 	data[40] 	8904
scalar tree_5_3_u10_r1_network.node[40].content_store 	p_hit[40] 	0.26844700082169
scalar tree_5_3_u10_r1_network.node[40].content_store 	hits[40] 	3267
scalar tree_5_3_u10_r1_network.node[40].content_store 	misses[40] 	8903
scalar tree_5_3_u10_r1_network.node[40].content_store 	decision_yes[40] 	373
scalar tree_5_3_u10_r1_network.node[40].content_store 	decision_no[40] 	8531
scalar tree_5_3_u10_r1_network.node[40].content_store 	decision_ratio[40] 	0.041891284815813
scalar tree_5_3_u10_r1_network.node[41].core_layer 	interests[41] 	11931
scalar tree_5_3_u10_r1_network.node[41].core_layer 	data[41] 	8707
scalar tree_5_3_u10_r1_network.node[41].content_store 	p_hit[41] 	0.2702204341631
scalar tree_5_3_u10_r1_network.node[41].content_store 	hits[41] 	3224
scalar tree_5_3_u10_r1_network.node[41].content_store 	misses[41] 	8707
scalar tree_5_3_u10_r1_network.node[41].content_store 	decision_yes[41] 	337
scalar tree_5_3_u10_r1_network.node[41].content_store 	decision_no[41] 	8370
scalar tree_5_3_u10_r1_network.node[41].content_store 	decision_ratio[41] 	0.038704490639715
scalar tree_5_3_u10_r1_network.node[42].core_layer 	interests[42] 	11838
scalar tree_5_3_u10_r1_network.node[42].core_layer 	data[42] 	8766
scalar tree_5_3_u10_r1_network.node[42].content_store 	p_hit[42] 	0.25950329447542
scalar tree_5_3_u10_r1_network.node[42].content_store 	hits[42] 	3072
scalar tree_5_3_u10_r1_network.node[42].content_store 	misses[42] 	8766
scalar tree_5_3_u10_r1_network.node[42].content_store 	decision_yes[42] 	383
scalar tree_5_3_u10_r1_network.node[42].content_store 	decision_no[42] 	8383
scalar tree_5_3_u10_r1_network.node[42].content_store 	decision_ratio[42] 	0.043691535477983
scalar tree_5_3_u10_r1_network.node[43].core_layer 	interests[43] 	11916
scalar tree_5_3_u10_r1_network.node[43].core_layer 	data[43] 	8766
scalar tree_5_3_u10_r1_network.node[43].content_store 	p_hit[43] 	0.26435045317221
scalar tree_5_3_u10_r1_network.node[43].content_store 	hits[43] 	3150
scalar tree_5_3_u10_r1_network.node[43].content_store 	misses[43] 	8766
scalar tree_5_3_u10_r1_network.node[43].content_store 	decision_yes[43] 	335
scalar tree_5_3_u10_r1_network.node[43].content_store 	decision_no[43] 	8431
scalar tree_5_3_u10_r1_network.node[43].content_store 	decision_ratio[43] 	0.038215833903719
scalar tree_5_3_u10_r1_network.node[44].core_layer 	interests[44] 	12117
scalar tree_5_3_u10_r1_network.node[44].core_layer 	data[44] 	8853
scalar tree_5_3_u10_r1_network.node[44].content_store 	p_hit[44] 	0.26937360732855
scalar tree_5_3_u10_r1_network.node[44].content_store 	hits[44] 	3264
scalar tree_5_3_u10_r1_network.node[44].content_store 	misses[44] 	8853
scalar tree_5_3_u10_r1_network.node[44].content_store 	decision_yes[44] 	335
scalar tree_5_3_u10_r1_network.node[44].content_store 	decision_no[44] 	8518
scalar tree_5_3_u10_r1_network.node[44].content_store 	decision_ratio[44] 	0.037840280131029
scalar tree_5_3_u10_r1_network.node[45].core_layer 	interests[45] 	12211
scalar tree_5_3_u10_r1_network.node[45].core_layer 	data[45] 	8939
scalar tree_5_3_u10_r1_network.node[45].content_store 	p_hit[45] 	0.2679551224306
scalar tree_5_3_u10_r1_network.node[45].content_store 	hits[45] 	3272
scalar tree_5_3_u10_r1_network.node[45].content_store 	misses[45] 	8939
scalar tree_5_3_u10_r1_network.node[45].content_store 	decision_yes[45] 	369
scalar tree_5_3_u10_r1_network.node[45].content_store 	decision_no[45] 	8570
scalar tree_5_3_u10_r1_network.node[45].content_store 	decision_ratio[45] 	0.041279785210874
scalar tree_5_3_u10_r1_network.node[46].core_layer 	interests[46] 	11875
scalar tree_5_3_u10_r1_network.node[46].core_layer 	data[46] 	8758
scalar tree_5_3_u10_r1_network.node[46].content_store 	p_hit[46] 	0.26256842105263
scalar tree_5_3_u10_r1_network.node[46].content_store 	hits[46] 	3118
scalar tree_5_3_u10_r1_network.node[46].content_store 	misses[46] 	8757
scalar tree_5_3_u10_r1_network.node[46].content_store 	decision_yes[46] 	352
scalar tree_5_3_u10_r1_network.node[46].content_store 	decision_no[46] 	8406
scalar tree_5_3_u10_r1_network.node[46].content_store 	decision_ratio[46] 	0.040191824617493
scalar tree_5_3_u10_r1_network.node[47].core_layer 	interests[47] 	12031
scalar tree_5_3_u10_r1_network.node[47].core_layer 	data[47] 	8840
scalar tree_5_3_u10_r1_network.node[47].content_store 	p_hit[47] 	0.26514836671931
scalar tree_5_3_u10_r1_network.node[47].content_store 	hits[47] 	3190
scalar tree_5_3_u10_r1_network.node[47].content_store 	misses[47] 	8841
scalar tree_5_3_u10_r1_network.node[47].content_store 	decision_yes[47] 	335
scalar tree_5_3_u10_r1_network.node[47].content_store 	decision_no[47] 	8505
scalar tree_5_3_u10_r1_network.node[47].content_store 	decision_ratio[47] 	0.03789592760181
scalar tree_5_3_u10_r1_network.node[48].core_layer 	interests[48] 	11925
scalar tree_5_3_u10_r1_network.node[48].core_layer 	data[48] 	8662
scalar tree_5_3_u10_r1_network.node[48].content_store 	p_hit[48] 	0.2737106918239
scalar tree_5_3_u10_r1_network.node[48].content_store 	hits[48] 	3264
scalar tree_5_3_u10_r1_network.node[48].content_store 	misses[48] 	8661
scalar tree_5_3_u10_r1_network.node[48].content_store 	decision_yes[48] 	283
scalar tree_5_3_u10_r1_network.node[48].content_store 	decision_no[48] 	8379
scalar tree_5_3_u10_r1_network.node[48].content_store 	decision_ratio[48] 	0.032671438466867
scalar tree_5_3_u10_r1_network.node[49].core_layer 	interests[49] 	11954
scalar tree_5_3_u10_r1_network.node[49].core_layer 	data[49] 	8726
scalar tree_5_3_u10_r1_network.node[49].content_store 	p_hit[49] 	0.27003513468295
scalar tree_5_3_u10_r1_network.node[49].content_store 	hits[49] 	3228
scalar tree_5_3_u10_r1_network.node[49].content_store 	misses[49] 	8726
scalar tree_5_3_u10_r1_network.node[49].content_store 	decision_yes[49] 	340
scalar tree_5_3_u10_r1_network.node[49].content_store 	decision_no[49] 	8386
scalar tree_5_3_u10_r1_network.node[49].content_store 	decision_ratio[49] 	0.038964015585606
scalar tree_5_3_u10_r1_network.node[50].core_layer 	interests[50] 	12025
scalar tree_5_3_u10_r1_network.node[50].core_layer 	data[50] 	8795
scalar tree_5_3_u10_r1_network.node[50].content_store 	p_hit[50] 	0.26844074844075
scalar tree_5_3_u10_r1_network.node[50].content_store 	hits[50] 	3228
scalar tree_5_3_u10_r1_network.node[50].content_store 	misses[50] 	8797
scalar tree_5_3_u10_r1_network.node[50].content_store 	decision_yes[50] 	367
scalar tree_5_3_u10_r1_network.node[50].content_store 	decision_no[50] 	8428
scalar tree_5_3_u10_r1_network.node[50].content_store 	decision_ratio[50] 	0.041728254690165
scalar tree_5_3_u10_r1_network.node[51].core_layer 	interests[51] 	11739
scalar tree_5_3_u10_r1_network.node[51].core_layer 	data[51] 	8621
scalar tree_5_3_u10_r1_network.node[51].content_store 	p_hit[51] 	0.26561035863361
scalar tree_5_3_u10_r1_network.node[51].content_store 	hits[51] 	3118
scalar tree_5_3_u10_r1_network.node[51].content_store 	misses[51] 	8621
scalar tree_5_3_u10_r1_network.node[51].content_store 	decision_yes[51] 	351
scalar tree_5_3_u10_r1_network.node[51].content_store 	decision_no[51] 	8270
scalar tree_5_3_u10_r1_network.node[51].content_store 	decision_ratio[51] 	0.040714534276766
scalar tree_5_3_u10_r1_network.node[52].core_layer 	interests[52] 	11992
scalar tree_5_3_u10_r1_network.node[52].core_layer 	data[52] 	8820
scalar tree_5_3_u10_r1_network.node[52].content_store 	p_hit[52] 	0.26450967311541
scalar tree_5_3_u10_r1_network.node[52].content_store 	hits[52] 	3172
scalar tree_5_3_u10_r1_network.node[52].content_store 	misses[52] 	8820
scalar tree_5_3_u10_r1_network.node[52].content_store 	decision_yes[52] 	350
scalar tree_5_3_u10_r1_network.node[52].content_store 	decision_no[52] 	8470
scalar tree_5_3_u10_r1_network.node[52].content_store 	decision_ratio[52] 	0.03968253968254
scalar tree_5_3_u10_r1_network.node[53].core_layer 	interests[53] 	11923
scalar tree_5_3_u10_r1_network.node[53].core_layer 	data[53] 	8714
scalar tree_5_3_u10_r1_network.node[53].content_store 	p_hit[53] 	0.26914367189466
scalar tree_5_3_u10_r1_network.node[53].content_store 	hits[53] 	3209
scalar tree_5_3_u10_r1_network.node[53].content_store 	misses[53] 	8714
scalar tree_5_3_u10_r1_network.node[53].content_store 	decision_yes[53] 	306
scalar tree_5_3_u10_r1_network.node[53].content_store 	decision_no[53] 	8408
scalar tree_5_3_u10_r1_network.node[53].content_store 	decision_ratio[53] 	0.035115905439523
scalar tree_5_3_u10_r1_network.node[54].core_layer 	interests[54] 	11923
scalar tree_5_3_u10_r1_network.node[54].core_layer 	data[54] 	8748
scalar tree_5_3_u10_r1_network.node[54].content_store 	p_hit[54] 	0.26620816908496
scalar tree_5_3_u10_r1_network.node[54].content_store 	hits[54] 	3174
scalar tree_5_3_u10_r1_network.node[54].content_store 	misses[54] 	8749
scalar tree_5_3_u10_r1_network.node[54].content_store 	decision_yes[54] 	333
scalar tree_5_3_u10_r1_network.node[54].content_store 	decision_no[54] 	8415
scalar tree_5_3_u10_r1_network.node[54].content_store 	decision_ratio[54] 	0.038065843621399
scalar tree_5_3_u10_r1_network.node[55].core_layer 	interests[55] 	12090
scalar tree_5_3_u10_r1_network.node[55].core_layer 	data[55] 	8843
scalar tree_5_3_u10_r1_network.node[55].content_store 	p_hit[55] 	0.26856906534326
scalar tree_5_3_u10_r1_network.node[55].content_store 	hits[55] 	3247
scalar tree_5_3_u10_r1_network.node[55].content_store 	misses[55] 	8843
scalar tree_5_3_u10_r1_network.node[55].content_store 	decision_yes[55] 	377
scalar tree_5_3_u10_r1_network.node[55].content_store 	decision_no[55] 	8466
scalar tree_5_3_u10_r1_network.node[55].content_store 	decision_ratio[55] 	0.042632590749746
scalar tree_5_3_u10_r1_network.node[56].core_layer 	interests[56] 	11921
scalar tree_5_3_u10_r1_network.node[56].core_layer 	data[56] 	8642
scalar tree_5_3_u10_r1_network.node[56].content_store 	p_hit[56] 	0.27497693146548
scalar tree_5_3_u10_r1_network.node[56].content_store 	hits[56] 	3278
scalar tree_5_3_u10_r1_network.node[56].content_store 	misses[56] 	8643
scalar tree_5_3_u10_r1_network.node[56].content_store 	decision_yes[56] 	330
scalar tree_5_3_u10_r1_network.node[56].content_store 	decision_no[56] 	8312
scalar tree_5_3_u10_r1_network.node[56].content_store 	decision_ratio[56] 	0.038185605183985
scalar tree_5_3_u10_r1_network.node[57].core_layer 	interests[57] 	11895
scalar tree_5_3_u10_r1_network.node[57].core_layer 	data[57] 	8753
scalar tree_5_3_u10_r1_network.node[57].content_store 	p_hit[57] 	0.26414459857083
scalar tree_5_3_u10_r1_network.node[57].content_store 	hits[57] 	3142
scalar tree_5_3_u10_r1_network.node[57].content_store 	misses[57] 	8753
scalar tree_5_3_u10_r1_network.node[57].content_store 	decision_yes[57] 	299
scalar tree_5_3_u10_r1_network.node[57].content_store 	decision_no[57] 	8454
scalar tree_5_3_u10_r1_network.node[57].content_store 	decision_ratio[57] 	0.034159716668571
scalar tree_5_3_u10_r1_network.node[58].core_layer 	interests[58] 	11919
scalar tree_5_3_u10_r1_network.node[58].core_layer 	data[58] 	8793
scalar tree_5_3_u10_r1_network.node[58].content_store 	p_hit[58] 	0.26227032469167
scalar tree_5_3_u10_r1_network.node[58].content_store 	hits[58] 	3126
scalar tree_5_3_u10_r1_network.node[58].content_store 	misses[58] 	8793
scalar tree_5_3_u10_r1_network.node[58].content_store 	decision_yes[58] 	397
scalar tree_5_3_u10_r1_network.node[58].content_store 	decision_no[58] 	8396
scalar tree_5_3_u10_r1_network.node[58].content_store 	decision_ratio[58] 	0.045149550779029
scalar tree_5_3_u10_r1_network.node[59].core_layer 	interests[59] 	11944
scalar tree_5_3_u10_r1_network.node[59].core_layer 	data[59] 	8759
scalar tree_5_3_u10_r1_network.node[59].content_store 	p_hit[59] 	0.26666108506363
scalar tree_5_3_u10_r1_network.node[59].content_store 	hits[59] 	3185
scalar tree_5_3_u10_r1_network.node[59].content_store 	misses[59] 	8759
scalar tree_5_3_u10_r1_network.node[59].content_store 	decision_yes[59] 	342
scalar tree_5_3_u10_r1_network.node[59].content_store 	decision_no[59] 	8417
scalar tree_5_3_u10_r1_network.node[59].content_store 	decision_ratio[59] 	0.039045553145336
scalar tree_5_3_u10_r1_network.node[60].core_layer 	interests[60] 	11964
scalar tree_5_3_u10_r1_network.node[60].core_layer 	data[60] 	8765
scalar tree_5_3_u10_r1_network.node[60].content_store 	p_hit[60] 	0.26721832163156
scalar tree_5_3_u10_r1_network.node[60].content_store 	hits[60] 	3197
scalar tree_5_3_u10_r1_network.node[60].content_store 	misses[60] 	8767
scalar tree_5_3_u10_r1_network.node[60].content_store 	decision_yes[60] 	353
scalar tree_5_3_u10_r1_network.node[60].content_store 	decision_no[60] 	8412
scalar tree_5_3_u10_r1_network.node[60].content_store 	decision_ratio[60] 	0.040273816314889
scalar tree_5_3_u10_r1_network.node[61].core_layer 	interests[61] 	12191
scalar tree_5_3_u10_r1_network.node[61].core_layer 	data[61] 	8973
scalar tree_5_3_u10_r1_network.node[61].content_store 	p_hit[61] 	0.26396522024444
scalar tree_5_3_u10_r1_network.node[61].content_store 	hits[61] 	3218
scalar tree_5_3_u10_r1_network.node[61].content_store 	misses[61] 	8973
scalar tree_5_3_u10_r1_network.node[61].content_store 	decision_yes[61] 	370
scalar tree_5_3_u10_r1_network.node[61].content_store 	decision_no[61] 	8603
scalar tree_5_3_u10_r1_network.node[61].content_store 	decision_ratio[61] 	0.041234815557784
scalar tree_5_3_u10_r1_network.node[62].core_layer 	interests[62] 	11972
scalar tree_5_3_u10_r1_network.node[62].core_layer 	data[62] 	8730
scalar tree_5_3_u10_r1_network.node[62].content_store 	p_hit[62] 	0.27079852990311
scalar tree_5_3_u10_r1_network.node[62].content_store 	hits[62] 	3242
scalar tree_5_3_u10_r1_network.node[62].content_store 	misses[62] 	8730
scalar tree_5_3_u10_r1_network.node[62].content_store 	decision_yes[62] 	306
scalar tree_5_3_u10_r1_network.node[62].content_store 	decision_no[62] 	8424
scalar tree_5_3_u10_r1_network.node[62].content_store 	decision_ratio[62] 	0.035051546391753
scalar tree_5_3_u10_r1_network.node[63].core_layer 	interests[63] 	11968
scalar tree_5_3_u10_r1_network.node[63].core_layer 	data[63] 	8675
scalar tree_5_3_u10_r1_network.node[63].content_store 	p_hit[63] 	0.27515040106952
scalar tree_5_3_u10_r1_network.node[63].content_store 	hits[63] 	3293
scalar tree_5_3_u10_r1_network.node[63].content_store 	misses[63] 	8675
scalar tree_5_3_u10_r1_network.node[63].content_store 	decision_yes[63] 	309
scalar tree_5_3_u10_r1_network.node[63].content_store 	decision_no[63] 	8366
scalar tree_5_3_u10_r1_network.node[63].content_store 	decision_ratio[63] 	0.035619596541787
scalar tree_5_3_u10_r1_network.node[64].core_layer 	interests[64] 	12006
scalar tree_5_3_u10_r1_network.node[64].core_layer 	data[64] 	8806
scalar tree_5_3_u10_r1_network.node[64].content_store 	p_hit[64] 	0.26653339996668
scalar tree_5_3_u10_r1_network.node[64].content_store 	hits[64] 	3200
scalar tree_5_3_u10_r1_network.node[64].content_store 	misses[64] 	8806
scalar tree_5_3_u10_r1_network.node[64].content_store 	decision_yes[64] 	352
scalar tree_5_3_u10_r1_network.node[64].content_store 	decision_no[64] 	8454
scalar tree_5_3_u10_r1_network.node[64].content_store 	decision_ratio[64] 	0.039972745855099
scalar tree_5_3_u10_r1_network.node[65].core_layer 	interests[65] 	12102
scalar tree_5_3_u10_r1_network.node[65].core_layer 	data[65] 	8913
scalar tree_5_3_u10_r1_network.node[65].content_store 	p_hit[65] 	0.26351016360932
scalar tree_5_3_u10_r1_network.node[65].content_store 	hits[65] 	3189
scalar tree_5_3_u10_r1_network.node[65].content_store 	misses[65] 	8913
scalar tree_5_3_u10_r1_network.node[65].content_store 	decision_yes[65] 	336
scalar tree_5_3_u10_r1_network.node[65].content_store 	decision_no[65] 	8577
scalar tree_5_3_u10_r1_network.node[65].content_store 	decision_ratio[65] 	0.037697744867048
scalar tree_5_3_u10_r1_network.node[66].core_layer 	interests[66] 	12000
scalar tree_5_3_u10_r1_network.node[66].core_layer 	data[66] 	8765
scalar tree_5_3_u10_r1_network.node[66].content_store 	p_hit[66] 	0.26966666666667
scalar tree_5_3_u10_r1_network.node[66].content_store 	hits[66] 	3236
scalar tree_5_3_u10_r1_network.node[66].content_store 	misses[66] 	8764
scalar tree_5_3_u10_r1_network.node[66].content_store 	decision_yes[66] 	252
scalar tree_5_3_u10_r1_network.node[66].content_store 	decision_no[66] 	8513
scalar tree_5_3_u10_r1_network.node[66].content_store 	decision_ratio[66] 	0.02875071306332
scalar tree_5_3_u10_r1_network.node[67].core_layer 	interests[67] 	11778
scalar tree_5_3_u10_r1_network.node[67].core_layer 	data[67] 	8642
scalar tree_5_3_u10_r1_network.node[67].content_store 	p_hit[67] 	0.26625912718628
scalar tree_5_3_u10_r1_network.node[67].content_store 	hits[67] 	3136
scalar tree_5_3_u10_r1_network.node[67].content_store 	misses[67] 	8642
scalar tree_5_3_u10_r1_network.node[67].content_store 	decision_yes[67] 	350
scalar tree_5_3_u10_r1_network.node[67].content_store 	decision_no[67] 	8292
scalar tree_5_3_u10_r1_network.node[67].content_store 	decision_ratio[67] 	0.040499884286045
scalar tree_5_3_u10_r1_network.node[68].core_layer 	interests[68] 	12107
scalar tree_5_3_u10_r1_network.node[68].core_layer 	data[68] 	8953
scalar tree_5_3_u10_r1_network.node[68].content_store 	p_hit[68] 	0.26051044850087
scalar tree_5_3_u10_r1_network.node[68].content_store 	hits[68] 	3154
scalar tree_5_3_u10_r1_network.node[68].content_store 	misses[68] 	8953
scalar tree_5_3_u10_r1_network.node[68].content_store 	decision_yes[68] 	336
scalar tree_5_3_u10_r1_network.node[68].content_store 	decision_no[68] 	8617
scalar tree_5_3_u10_r1_network.node[68].content_store 	decision_ratio[68] 	0.037529319781079
scalar tree_5_3_u10_r1_network.node[69].core_layer 	interests[69] 	12102
scalar tree_5_3_u10_r1_network.node[69].core_layer 	data[69] 	8735
scalar tree_5_3_u10_r1_network.node[69].content_store 	p_hit[69] 	0.27821847628491
scalar tree_5_3_u10_r1_network.node[69].content_store 	hits[69] 	3367
scalar tree_5_3_u10_r1_network.node[69].content_store 	misses[69] 	8735
scalar tree_5_3_u10_r1_network.node[69].content_store 	decision_yes[69] 	323
scalar tree_5_3_u10_r1_network.node[69].content_store 	decision_no[69] 	8412
scalar tree_5_3_u10_r1_network.node[69].content_store 	decision_ratio[69] 	0.036977676016027
scalar tree_5_3_u10_r1_network.node[70].core_layer 	interests[70] 	11814
scalar tree_5_3_u10_r1_network.node[70].core_layer 	data[70] 	8724
scalar tree_5_3_u10_r1_network.node[70].content_store 	p_hit[70] 	0.26155408836973
scalar tree_5_3_u10_r1_network.node[70].content_store 	hits[70] 	3090
scalar tree_5_3_u10_r1_network.node[70].content_store 	misses[70] 	8724
scalar tree_5_3_u10_r1_network.node[70].content_store 	decision_yes[70] 	358
scalar tree_5_3_u10_r1_network.node[70].content_store 	decision_no[70] 	8366
scalar tree_5_3_u10_r1_network.node[70].content_store 	decision_ratio[70] 	0.041036221916552
scalar tree_5_3_u10_r1_network.node[71].core_layer 	interests[71] 	12099
scalar tree_5_3_u10_r1_network.node[71].core_layer 	data[71] 	8834
scalar tree_5_3_u10_r1_network.node[71].content_store 	p_hit[71] 	0.26985701297628
scalar tree_5_3_u10_r1_network.node[71].content_store 	hits[71] 	3265
scalar tree_5_3_u10_r1_network.node[71].content_store 	misses[71] 	8834
scalar tree_5_3_u10_r1_network.node[71].content_store 	decision_yes[71] 	329
scalar tree_5_3_u10_r1_network.node[71].content_store 	decision_no[71] 	8505
scalar tree_5_3_u10_r1_network.node[71].content_store 	decision_ratio[71] 	0.037242472266244
scalar tree_5_3_u10_r1_network.node[72].core_layer 	interests[72] 	11832
scalar tree_5_3_u10_r1_network.node[72].core_layer 	data[72] 	8618
scalar tree_5_3_u10_r1_network.node[72].content_store 	p_hit[72] 	0.27163624070318
scalar tree_5_3_u10_r1_network.node[72].content_store 	hits[72] 	3214
scalar tree_5_3_u10_r1_network.node[72].content_store 	misses[72] 	8618
scalar tree_5_3_u10_r1_network.node[72].content_store 	decision_yes[72] 	312
scalar tree_5_3_u10_r1_network.node[72].content_store 	decision_no[72] 	8306
scalar tree_5_3_u10_r1_network.node[72].content_store 	decision_ratio[72] 	0.036203295428174
scalar tree_5_3_u10_r1_network.node[73].core_layer 	interests[73] 	11989
scalar tree_5_3_u10_r1_network.node[73].core_layer 	data[73] 	8728
scalar tree_5_3_u10_r1_network.node[73].content_store 	p_hit[73] 	0.27199933272166
scalar tree_5_3_u10_r1_network.node[73].content_store 	hits[73] 	3261
scalar tree_5_3_u10_r1_network.node[73].content_store 	misses[73] 	8728
scalar tree_5_3_u10_r1_network.node[73].content_store 	decision_yes[73] 	380
scalar tree_5_3_u10_r1_network.node[73].content_store 	decision_no[73] 	8348
scalar tree_5_3_u10_r1_network.node[73].content_store 	decision_ratio[73] 	0.043538038496792
scalar tree_5_3_u10_r1_network.node[74].core_layer 	interests[74] 	12115
scalar tree_5_3_u10_r1_network.node[74].core_layer 	data[74] 	8886
scalar tree_5_3_u10_r1_network.node[74].content_store 	p_hit[74] 	0.26652909616178
scalar tree_5_3_u10_r1_network.node[74].content_store 	hits[74] 	3229
scalar tree_5_3_u10_r1_network.node[74].content_store 	misses[74] 	8886
scalar tree_5_3_u10_r1_network.node[74].content_store 	decision_yes[74] 	341
scalar tree_5_3_u10_r1_network.node[74].content_store 	decision_no[74] 	8545
scalar tree_5_3_u10_r1_network.node[74].content_store 	decision_ratio[74] 	0.038374971865856
scalar tree_5_3_u10_r1_network.node[75].core_layer 	interests[75] 	12061
scalar tree_5_3_u10_r1_network.node[75].core_layer 	data[75] 	8906
scalar tree_5_3_u10_r1_network.node[75].content_store 	p_hit[75] 	0.26150402122544
scalar tree_5_3_u10_r1_network.node[75].content_store 	hits[75] 	3154
scalar tree_5_3_u10_r1_network.node[75].content_store 	misses[75] 	8907
scalar tree_5_3_u10_r1_network.node[75].content_store 	decision_yes[75] 	291
scalar tree_5_3_u10_r1_network.node[75].content_store 	decision_no[75] 	8615
scalar tree_5_3_u10_r1_network.node[75].content_store 	decision_ratio[75] 	0.03267460139232
scalar tree_5_3_u10_r1_network.node[76].core_layer 	interests[76] 	12013
scalar tree_5_3_u10_r1_network.node[76].core_layer 	data[76] 	8856
scalar tree_5_3_u10_r1_network.node[76].content_store 	p_hit[76] 	0.26279863481229
scalar tree_5_3_u10_r1_network.node[76].content_store 	hits[76] 	3157
scalar tree_5_3_u10_r1_network.node[76].content_store 	misses[76] 	8856
scalar tree_5_3_u10_r1_network.node[76].content_store 	decision_yes[76] 	382
scalar tree_5_3_u10_r1_network.node[76].content_store 	decision_no[76] 	8474
scalar tree_5_3_u10_r1_network.node[76].content_store 	decision_ratio[76] 	0.043134598012647
scalar tree_5_3_u10_r1_network.node[77].core_layer 	interests[77] 	11943
scalar tree_5_3_u10_r1_network.node[77].core_layer 	data[77] 	8751
scalar tree_5_3_u10_r1_network.node[77].content_store 	p_hit[77] 	0.26726953026878
scalar tree_5_3_u10_r1_network.node[77].content_store 	hits[77] 	3192
scalar tree_5_3_u10_r1_network.node[77].content_store 	misses[77] 	8751
scalar tree_5_3_u10_r1_network.node[77].content_store 	decision_yes[77] 	380
scalar tree_5_3_u10_r1_network.node[77].content_store 	decision_no[77] 	8371
scalar tree_5_3_u10_r1_network.node[77].content_store 	decision_ratio[77] 	0.043423608730431
scalar tree_5_3_u10_r1_network.node[78].core_layer 	interests[78] 	11979
scalar tree_5_3_u10_r1_network.node[78].core_layer 	data[78] 	8762
scalar tree_5_3_u10_r1_network.node[78].content_store 	p_hit[78] 	0.26855330161115
scalar tree_5_3_u10_r1_network.node[78].content_store 	hits[78] 	3217
scalar tree_5_3_u10_r1_network.node[78].content_store 	misses[78] 	8762
scalar tree_5_3_u10_r1_network.node[78].content_store 	decision_yes[78] 	374
scalar tree_5_3_u10_r1_network.node[78].content_store 	decision_no[78] 	8388
scalar tree_5_3_u10_r1_network.node[78].content_store 	decision_ratio[78] 	0.04268431864871
scalar tree_5_3_u10_r1_network.node[79].core_layer 	interests[79] 	12078
scalar tree_5_3_u10_r1_network.node[79].core_layer 	data[79] 	8920
scalar tree_5_3_u10_r1_network.node[79].content_store 	p_hit[79] 	0.26146713031959
scalar tree_5_3_u10_r1_network.node[79].content_store 	hits[79] 	3158
scalar tree_5_3_u10_r1_network.node[79].content_store 	misses[79] 	8920
scalar tree_5_3_u10_r1_network.node[79].content_store 	decision_yes[79] 	335
scalar tree_5_3_u10_r1_network.node[79].content_store 	decision_no[79] 	8585
scalar tree_5_3_u10_r1_network.node[79].content_store 	decision_ratio[79] 	0.037556053811659
scalar tree_5_3_u10_r1_network.node[80].core_layer 	interests[80] 	11935
scalar tree_5_3_u10_r1_network.node[80].core_layer 	data[80] 	8809
scalar tree_5_3_u10_r1_network.node[80].content_store 	p_hit[80] 	0.26191872643486
scalar tree_5_3_u10_r1_network.node[80].content_store 	hits[80] 	3126
scalar tree_5_3_u10_r1_network.node[80].content_store 	misses[80] 	8809
scalar tree_5_3_u10_r1_network.node[80].content_store 	decision_yes[80] 	292
scalar tree_5_3_u10_r1_network.node[80].content_store 	decision_no[80] 	8517
scalar tree_5_3_u10_r1_network.node[80].content_store 	decision_ratio[80] 	0.033147916903167
scalar tree_5_3_u10_r1_network.node[81].core_layer 	interests[81] 	11887
scalar tree_5_3_u10_r1_network.node[81].core_layer 	data[81] 	8711
scalar tree_5_3_u10_r1_network.node[81].content_store 	p_hit[81] 	0.26709851097838
scalar tree_5_3_u10_r1_network.node[81].content_store 	hits[81] 	3175
scalar tree_5_3_u10_r1_network.node[81].content_store 	misses[81] 	8712
scalar tree_5_3_u10_r1_network.node[81].content_store 	decision_yes[81] 	288
scalar tree_5_3_u10_r1_network.node[81].content_store 	decision_no[81] 	8423
scalar tree_5_3_u10_r1_network.node[81].content_store 	decision_ratio[81] 	0.033061646194467
scalar tree_5_3_u10_r1_network.node[82].core_layer 	interests[82] 	12135
scalar tree_5_3_u10_r1_network.node[82].core_layer 	data[82] 	8904
scalar tree_5_3_u10_r1_network.node[82].content_store 	p_hit[82] 	0.26617222908941
scalar tree_5_3_u10_r1_network.node[82].content_store 	hits[82] 	3230
scalar tree_5_3_u10_r1_network.node[82].content_store 	misses[82] 	8905
scalar tree_5_3_u10_r1_network.node[82].content_store 	decision_yes[82] 	358
scalar tree_5_3_u10_r1_network.node[82].content_store 	decision_no[82] 	8546
scalar tree_5_3_u10_r1_network.node[82].content_store 	decision_ratio[82] 	0.040206648697215
scalar tree_5_3_u10_r1_network.node[83].core_layer 	interests[83] 	12147
scalar tree_5_3_u10_r1_network.node[83].core_layer 	data[83] 	8933
scalar tree_5_3_u10_r1_network.node[83].content_store 	p_hit[83] 	0.26459208034906
scalar tree_5_3_u10_r1_network.node[83].content_store 	hits[83] 	3214
scalar tree_5_3_u10_r1_network.node[83].content_store 	misses[83] 	8933
scalar tree_5_3_u10_r1_network.node[83].content_store 	decision_yes[83] 	304
scalar tree_5_3_u10_r1_network.node[83].content_store 	decision_no[83] 	8629
scalar tree_5_3_u10_r1_network.node[83].content_store 	decision_ratio[83] 	0.0340311205642
scalar tree_5_3_u10_r1_network.node[84].core_layer 	interests[84] 	12141
scalar tree_5_3_u10_r1_network.node[84].core_layer 	data[84] 	8964
scalar tree_5_3_u10_r1_network.node[84].content_store 	p_hit[84] 	0.26159294950993
scalar tree_5_3_u10_r1_network.node[84].content_store 	hits[84] 	3176
scalar tree_5_3_u10_r1_network.node[84].content_store 	misses[84] 	8965
scalar tree_5_3_u10_r1_network.node[84].content_store 	decision_yes[84] 	278
scalar tree_5_3_u10_r1_network.node[84].content_store 	decision_no[84] 	8686
scalar tree_5_3_u10_r1_network.node[84].content_store 	decision_ratio[84] 	0.031012940651495
scalar tree_5_3_u10_r1_network.node[85].core_layer 	interests[85] 	12073
scalar tree_5_3_u10_r1_network.node[85].core_layer 	data[85] 	8949
scalar tree_5_3_u10_r1_network.node[85].content_store 	p_hit[85] 	0.25875921477677
scalar tree_5_3_u10_r1_network.node[85].content_store 	hits[85] 	3124
scalar tree_5_3_u10_r1_network.node[85].content_store 	misses[85] 	8949
scalar tree_5_3_u10_r1_network.node[85].content_store 	decision_yes[85] 	369
scalar tree_5_3_u10_r1_network.node[85].content_store 	decision_no[85] 	8580
scalar tree_5_3_u10_r1_network.node[85].content_store 	decision_ratio[85] 	0.041233657391887
scalar tree_5_3_u10_r1_network.node[86].core_layer 	interests[86] 	12277
scalar tree_5_3_u10_r1_network.node[86].core_layer 	data[86] 	9046
scalar tree_5_3_u10_r1_network.node[86].content_store 	p_hit[86] 	0.26317504276289
scalar tree_5_3_u10_r1_network.node[86].content_store 	hits[86] 	3231
scalar tree_5_3_u10_r1_network.node[86].content_store 	misses[86] 	9046
scalar tree_5_3_u10_r1_network.node[86].content_store 	decision_yes[86] 	395
scalar tree_5_3_u10_r1_network.node[86].content_store 	decision_no[86] 	8651
scalar tree_5_3_u10_r1_network.node[86].content_store 	decision_ratio[86] 	0.043665708600486
scalar tree_5_3_u10_r1_network.node[87].core_layer 	interests[87] 	12029
scalar tree_5_3_u10_r1_network.node[87].core_layer 	data[87] 	8765
scalar tree_5_3_u10_r1_network.node[87].content_store 	p_hit[87] 	0.27126111896251
scalar tree_5_3_u10_r1_network.node[87].content_store 	hits[87] 	3263
scalar tree_5_3_u10_r1_network.node[87].content_store 	misses[87] 	8766
scalar tree_5_3_u10_r1_network.node[87].content_store 	decision_yes[87] 	354
scalar tree_5_3_u10_r1_network.node[87].content_store 	decision_no[87] 	8411
scalar tree_5_3_u10_r1_network.node[87].content_store 	decision_ratio[87] 	0.040387906446092
scalar tree_5_3_u10_r1_network.node[88].core_layer 	interests[88] 	12205
scalar tree_5_3_u10_r1_network.node[88].core_layer 	data[88] 	8974
scalar tree_5_3_u10_r1_network.node[88].content_store 	p_hit[88] 	0.26472757066776
scalar tree_5_3_u10_r1_network.node[88].content_store 	hits[88] 	3231
scalar tree_5_3_u10_r1_network.node[88].content_store 	misses[88] 	8974
scalar tree_5_3_u10_r1_network.node[88].content_store 	decision_yes[88] 	364
scalar tree_5_3_u10_r1_network.node[88].content_store 	decision_no[88] 	8610
scalar tree_5_3_u10_r1_network.node[88].content_store 	decision_ratio[88] 	0.040561622464899
scalar tree_5_3_u10_r1_network.node[89].core_layer 	interests[89] 	12091
scalar tree_5_3_u10_r1_network.node[89].core_layer 	data[89] 	8924
scalar tree_5_3_u10_r1_network.node[89].content_store 	p_hit[89] 	0.26184765528079
scalar tree_5_3_u10_r1_network.node[89].content_store 	hits[89] 	3166
scalar tree_5_3_u10_r1_network.node[89].content_store 	misses[89] 	8925
scalar tree_5_3_u10_r1_network.node[89].content_store 	decision_yes[89] 	299
scalar tree_5_3_u10_r1_network.node[89].content_store 	decision_no[89] 	8625
scalar tree_5_3_u10_r1_network.node[89].content_store 	decision_ratio[89] 	0.033505154639175
scalar tree_5_3_u10_r1_network.node[90].core_layer 	interests[90] 	11948
scalar tree_5_3_u10_r1_network.node[90].core_layer 	data[90] 	8838
scalar tree_5_3_u10_r1_network.node[90].content_store 	p_hit[90] 	0.26029460997657
scalar tree_5_3_u10_r1_network.node[90].content_store 	hits[90] 	3110
scalar tree_5_3_u10_r1_network.node[90].content_store 	misses[90] 	8838
scalar tree_5_3_u10_r1_network.node[90].content_store 	decision_yes[90] 	297
scalar tree_5_3_u10_r1_network.node[90].content_store 	decision_no[90] 	8541
scalar tree_5_3_u10_r1_network.node[90].content_store 	decision_ratio[90] 	0.033604887983707
scalar tree_5_3_u10_r1_network.node[91].core_layer 	interests[91] 	12004
scalar tree_5_3_u10_r1_network.node[91].core_layer 	data[91] 	8863
scalar tree_5_3_u10_r1_network.node[91].content_store 	p_hit[91] 	0.26166277907364
scalar tree_5_3_u10_r1_network.node[91].content_store 	hits[91] 	3141
scalar tree_5_3_u10_r1_network.node[91].content_store 	misses[91] 	8863
scalar tree_5_3_u10_r1_network.node[91].content_store 	decision_yes[91] 	372
scalar tree_5_3_u10_r1_network.node[91].content_store 	decision_no[91] 	8491
scalar tree_5_3_u10_r1_network.node[91].content_store 	decision_ratio[91] 	0.041972244161119
scalar tree_5_3_u10_r1_network.node[92].core_layer 	interests[92] 	12007
scalar tree_5_3_u10_r1_network.node[92].core_layer 	data[92] 	8831
scalar tree_5_3_u10_r1_network.node[92].content_store 	p_hit[92] 	0.26451236778546
scalar tree_5_3_u10_r1_network.node[92].content_store 	hits[92] 	3176
scalar tree_5_3_u10_r1_network.node[92].content_store 	misses[92] 	8831
scalar tree_5_3_u10_r1_network.node[92].content_store 	decision_yes[92] 	298
scalar tree_5_3_u10_r1_network.node[92].content_store 	decision_no[92] 	8533
scalar tree_5_3_u10_r1_network.node[92].content_store 	decision_ratio[92] 	0.033744762767523
scalar tree_5_3_u10_r1_network.node[93].core_layer 	interests[93] 	12021
scalar tree_5_3_u10_r1_network.node[93].core_layer 	data[93] 	8742
scalar tree_5_3_u10_r1_network.node[93].content_store 	p_hit[93] 	0.27277264786623
scalar tree_5_3_u10_r1_network.node[93].content_store 	hits[93] 	3279
scalar tree_5_3_u10_r1_network.node[93].content_store 	misses[93] 	8742
scalar tree_5_3_u10_r1_network.node[93].content_store 	decision_yes[93] 	246
scalar tree_5_3_u10_r1_network.node[93].content_store 	decision_no[93] 	8496
scalar tree_5_3_u10_r1_network.node[93].content_store 	decision_ratio[93] 	0.028140013726836
scalar tree_5_3_u10_r1_network.node[94].core_layer 	interests[94] 	12043
scalar tree_5_3_u10_r1_network.node[94].core_layer 	data[94] 	8817
scalar tree_5_3_u10_r1_network.node[94].content_store 	p_hit[94] 	0.26787345345844
scalar tree_5_3_u10_r1_network.node[94].content_store 	hits[94] 	3226
scalar tree_5_3_u10_r1_network.node[94].content_store 	misses[94] 	8817
scalar tree_5_3_u10_r1_network.node[94].content_store 	decision_yes[94] 	334
scalar tree_5_3_u10_r1_network.node[94].content_store 	decision_no[94] 	8483
scalar tree_5_3_u10_r1_network.node[94].content_store 	decision_ratio[94] 	0.037881365543836
scalar tree_5_3_u10_r1_network.node[95].core_layer 	interests[95] 	12092
scalar tree_5_3_u10_r1_network.node[95].core_layer 	data[95] 	8893
scalar tree_5_3_u10_r1_network.node[95].content_store 	p_hit[95] 	0.26455507773735
scalar tree_5_3_u10_r1_network.node[95].content_store 	hits[95] 	3199
scalar tree_5_3_u10_r1_network.node[95].content_store 	misses[95] 	8893
scalar tree_5_3_u10_r1_network.node[95].content_store 	decision_yes[95] 	366
scalar tree_5_3_u10_r1_network.node[95].content_store 	decision_no[95] 	8527
scalar tree_5_3_u10_r1_network.node[95].content_store 	decision_ratio[95] 	0.041155965366018
scalar tree_5_3_u10_r1_network.node[96].core_layer 	interests[96] 	11931
scalar tree_5_3_u10_r1_network.node[96].core_layer 	data[96] 	8759
scalar tree_5_3_u10_r1_network.node[96].content_store 	p_hit[96] 	0.26594585533484
scalar tree_5_3_u10_r1_network.node[96].content_store 	hits[96] 	3173
scalar tree_5_3_u10_r1_network.node[96].content_store 	misses[96] 	8758
scalar tree_5_3_u10_r1_network.node[96].content_store 	decision_yes[96] 	378
scalar tree_5_3_u10_r1_network.node[96].content_store 	decision_no[96] 	8381
scalar tree_5_3_u10_r1_network.node[96].content_store 	decision_ratio[96] 	0.043155611371161
scalar tree_5_3_u10_r1_network.node[97].core_layer 	interests[97] 	12071
scalar tree_5_3_u10_r1_network.node[97].core_layer 	data[97] 	8779
scalar tree_5_3_u10_r1_network.node[97].content_store 	p_hit[97] 	0.27263689835142
scalar tree_5_3_u10_r1_network.node[97].content_store 	hits[97] 	3291
scalar tree_5_3_u10_r1_network.node[97].content_store 	misses[97] 	8780
scalar tree_5_3_u10_r1_network.node[97].content_store 	decision_yes[97] 	382
scalar tree_5_3_u10_r1_network.node[97].content_store 	decision_no[97] 	8397
scalar tree_5_3_u10_r1_network.node[97].content_store 	decision_ratio[97] 	0.043512928579565
scalar tree_5_3_u10_r1_network.node[98].core_layer 	interests[98] 	12177
scalar tree_5_3_u10_r1_network.node[98].core_layer 	data[98] 	8947
scalar tree_5_3_u10_r1_network.node[98].content_store 	p_hit[98] 	0.26525416769319
scalar tree_5_3_u10_r1_network.node[98].content_store 	hits[98] 	3230
scalar tree_5_3_u10_r1_network.node[98].content_store 	misses[98] 	8947
scalar tree_5_3_u10_r1_network.node[98].content_store 	decision_yes[98] 	326
scalar tree_5_3_u10_r1_network.node[98].content_store 	decision_no[98] 	8621
scalar tree_5_3_u10_r1_network.node[98].content_store 	decision_ratio[98] 	0.036436794456242
scalar tree_5_3_u10_r1_network.node[99].core_layer 	interests[99] 	12120
scalar tree_5_3_u10_r1_network.node[99].core_layer 	data[99] 	8858
scalar tree_5_3_u10_r1_network.node[99].content_store 	p_hit[99] 	0.26922442244224
scalar tree_5_3_u10_r1_network.node[99].content_store 	hits[99] 	3263
scalar tree_5_3_u10_r1_network.node[99].content_store 	misses[99] 	8857
scalar tree_5_3_u10_r1_network.node[99].content_store 	decision_yes[99] 	357
scalar tree_5_3_u10_r1_network.node[99].content_store 	decision_no[99] 	8501
scalar tree_5_3_u10_r1_network.node[99].content_store 	decision_ratio[99] 	0.040302551365997
scalar tree_5_3_u10_r1_network.node[100].core_layer 	interests[100] 	12060
scalar tree_5_3_u10_r1_network.node[100].core_layer 	data[100] 	8844
scalar tree_5_3_u10_r1_network.node[100].content_store 	p_hit[100] 	0.26666666666667
scalar tree_5_3_u10_r1_network.node[100].content_store 	hits[100] 	3216
scalar tree_5_3_u10_r1_network.node[100].content_store 	misses[100] 	8844
scalar tree_5_3_u10_r1_network.node[100].content_store 	decision_yes[100] 	401
scalar tree_5_3_u10_r1_network.node[100].content_store 	decision_no[100] 	8443
scalar tree_5_3_u10_r1_network.node[100].content_store 	decision_ratio[100] 	0.045341474445952
scalar tree_5_3_u10_r1_network.node[101].core_layer 	interests[101] 	11790
scalar tree_5_3_u10_r1_network.node[101].core_layer 	data[101] 	8698
scalar tree_5_3_u10_r1_network.node[101].content_store 	p_hit[101] 	0.26225614927905
scalar tree_5_3_u10_r1_network.node[101].content_store 	hits[101] 	3092
scalar tree_5_3_u10_r1_network.node[101].content_store 	misses[101] 	8698
scalar tree_5_3_u10_r1_network.node[101].content_store 	decision_yes[101] 	302
scalar tree_5_3_u10_r1_network.node[101].content_store 	decision_no[101] 	8396
scalar tree_5_3_u10_r1_network.node[101].content_store 	decision_ratio[101] 	0.034720625431134
scalar tree_5_3_u10_r1_network.node[102].core_layer 	interests[102] 	11938
scalar tree_5_3_u10_r1_network.node[102].core_layer 	data[102] 	8743
scalar tree_5_3_u10_r1_network.node[102].content_store 	p_hit[102] 	0.26771653543307
scalar tree_5_3_u10_r1_network.node[102].content_store 	hits[102] 	3196
scalar tree_5_3_u10_r1_network.node[102].content_store 	misses[102] 	8742
scalar tree_5_3_u10_r1_network.node[102].content_store 	decision_yes[102] 	281
scalar tree_5_3_u10_r1_network.node[102].content_store 	decision_no[102] 	8462
scalar tree_5_3_u10_r1_network.node[102].content_store 	decision_ratio[102] 	0.032139997712456
scalar tree_5_3_u10_r1_network.node[103].core_layer 	interests[103] 	12054
scalar tree_5_3_u10_r1_network.node[103].core_layer 	data[103] 	8768
scalar tree_5_3_u10_r1_network.node[103].content_store 	p_hit[103] 	0.27268956363033
scalar tree_5_3_u10_r1_network.node[103].content_store 	hits[103] 	3287
scalar tree_5_3_u10_r1_network.node[103].content_store 	misses[103] 	8767
scalar tree_5_3_u10_r1_network.node[103].content_store 	decision_yes[103] 	395
scalar tree_5_3_u10_r1_network.node[103].content_store 	decision_no[103] 	8373
scalar tree_5_3_u10_r1_network.node[103].content_store 	decision_ratio[103] 	0.045050182481752
scalar tree_5_3_u10_r1_network.node[104].core_layer 	interests[104] 	12147
scalar tree_5_3_u10_r1_network.node[104].core_layer 	data[104] 	9004
scalar tree_5_3_u10_r1_network.node[104].content_store 	p_hit[104] 	0.25874701572405
scalar tree_5_3_u10_r1_network.node[104].content_store 	hits[104] 	3143
scalar tree_5_3_u10_r1_network.node[104].content_store 	misses[104] 	9004
scalar tree_5_3_u10_r1_network.node[104].content_store 	decision_yes[104] 	369
scalar tree_5_3_u10_r1_network.node[104].content_store 	decision_no[104] 	8635
scalar tree_5_3_u10_r1_network.node[104].content_store 	decision_ratio[104] 	0.040981785872945
scalar tree_5_3_u10_r1_network.node[105].core_layer 	interests[105] 	12187
scalar tree_5_3_u10_r1_network.node[105].core_layer 	data[105] 	8925
scalar tree_5_3_u10_r1_network.node[105].content_store 	p_hit[105] 	0.2676622630672
scalar tree_5_3_u10_r1_network.node[105].content_store 	hits[105] 	3262
scalar tree_5_3_u10_r1_network.node[105].content_store 	misses[105] 	8925
scalar tree_5_3_u10_r1_network.node[105].content_store 	decision_yes[105] 	386
scalar tree_5_3_u10_r1_network.node[105].content_store 	decision_no[105] 	8539
scalar tree_5_3_u10_r1_network.node[105].content_store 	decision_ratio[105] 	0.043249299719888
scalar tree_5_3_u10_r1_network.node[106].core_layer 	interests[106] 	12149
scalar tree_5_3_u10_r1_network.node[106].core_layer 	data[106] 	8855
scalar tree_5_3_u10_r1_network.node[106].content_store 	p_hit[106] 	0.27105111531813
scalar tree_5_3_u10_r1_network.node[106].content_store 	hits[106] 	3293
scalar tree_5_3_u10_r1_network.node[106].content_store 	misses[106] 	8856
scalar tree_5_3_u10_r1_network.node[106].content_store 	decision_yes[106] 	358
scalar tree_5_3_u10_r1_network.node[106].content_store 	decision_no[106] 	8497
scalar tree_5_3_u10_r1_network.node[106].content_store 	decision_ratio[106] 	0.04042913608131
scalar tree_5_3_u10_r1_network.node[107].core_layer 	interests[107] 	11901
scalar tree_5_3_u10_r1_network.node[107].core_layer 	data[107] 	8715
scalar tree_5_3_u10_r1_network.node[107].content_store 	p_hit[107] 	0.26770859591631
scalar tree_5_3_u10_r1_network.node[107].content_store 	hits[107] 	3186
scalar tree_5_3_u10_r1_network.node[107].content_store 	misses[107] 	8715
scalar tree_5_3_u10_r1_network.node[107].content_store 	decision_yes[107] 	290
scalar tree_5_3_u10_r1_network.node[107].content_store 	decision_no[107] 	8425
scalar tree_5_3_u10_r1_network.node[107].content_store 	decision_ratio[107] 	0.033275960986804
scalar tree_5_3_u10_r1_network.node[108].core_layer 	interests[108] 	11800
scalar tree_5_3_u10_r1_network.node[108].core_layer 	data[108] 	8636
scalar tree_5_3_u10_r1_network.node[108].content_store 	p_hit[108] 	0.26813559322034
scalar tree_5_3_u10_r1_network.node[108].content_store 	hits[108] 	3164
scalar tree_5_3_u10_r1_network.node[108].content_store 	misses[108] 	8636
scalar tree_5_3_u10_r1_network.node[108].content_store 	decision_yes[108] 	282
scalar tree_5_3_u10_r1_network.node[108].content_store 	decision_no[108] 	8354
scalar tree_5_3_u10_r1_network.node[108].content_store 	decision_ratio[108] 	0.032654006484484
scalar tree_5_3_u10_r1_network.node[109].core_layer 	interests[109] 	12058
scalar tree_5_3_u10_r1_network.node[109].core_layer 	data[109] 	8878
scalar tree_5_3_u10_r1_network.node[109].content_store 	p_hit[109] 	0.26372532758335
scalar tree_5_3_u10_r1_network.node[109].content_store 	hits[109] 	3180
scalar tree_5_3_u10_r1_network.node[109].content_store 	misses[109] 	8878
scalar tree_5_3_u10_r1_network.node[109].content_store 	decision_yes[109] 	351
scalar tree_5_3_u10_r1_network.node[109].content_store 	decision_no[109] 	8527
scalar tree_5_3_u10_r1_network.node[109].content_store 	decision_ratio[109] 	0.039535931516107
scalar tree_5_3_u10_r1_network.node[110].core_layer 	interests[110] 	11918
scalar tree_5_3_u10_r1_network.node[110].core_layer 	data[110] 	8794
scalar tree_5_3_u10_r1_network.node[110].content_store 	p_hit[110] 	0.2621245175365
scalar tree_5_3_u10_r1_network.node[110].content_store 	hits[110] 	3124
scalar tree_5_3_u10_r1_network.node[110].content_store 	misses[110] 	8794
scalar tree_5_3_u10_r1_network.node[110].content_store 	decision_yes[110] 	283
scalar tree_5_3_u10_r1_network.node[110].content_store 	decision_no[110] 	8511
scalar tree_5_3_u10_r1_network.node[110].content_store 	decision_ratio[110] 	0.032181032522174
scalar tree_5_3_u10_r1_network.node[111].core_layer 	interests[111] 	12126
scalar tree_5_3_u10_r1_network.node[111].core_layer 	data[111] 	8782
scalar tree_5_3_u10_r1_network.node[111].content_store 	p_hit[111] 	0.27577107042718
scalar tree_5_3_u10_r1_network.node[111].content_store 	hits[111] 	3344
scalar tree_5_3_u10_r1_network.node[111].content_store 	misses[111] 	8782
scalar tree_5_3_u10_r1_network.node[111].content_store 	decision_yes[111] 	260
scalar tree_5_3_u10_r1_network.node[111].content_store 	decision_no[111] 	8522
scalar tree_5_3_u10_r1_network.node[111].content_store 	decision_ratio[111] 	0.029606012297882
scalar tree_5_3_u10_r1_network.node[112].core_layer 	interests[112] 	11958
scalar tree_5_3_u10_r1_network.node[112].core_layer 	data[112] 	8869
scalar tree_5_3_u10_r1_network.node[112].content_store 	p_hit[112] 	0.25823716340525
scalar tree_5_3_u10_r1_network.node[112].content_store 	hits[112] 	3088
scalar tree_5_3_u10_r1_network.node[112].content_store 	misses[112] 	8870
scalar tree_5_3_u10_r1_network.node[112].content_store 	decision_yes[112] 	355
scalar tree_5_3_u10_r1_network.node[112].content_store 	decision_no[112] 	8514
scalar tree_5_3_u10_r1_network.node[112].content_store 	decision_ratio[112] 	0.040027060547976
scalar tree_5_3_u10_r1_network.node[113].core_layer 	interests[113] 	11857
scalar tree_5_3_u10_r1_network.node[113].core_layer 	data[113] 	8664
scalar tree_5_3_u10_r1_network.node[113].content_store 	p_hit[113] 	0.26929240111327
scalar tree_5_3_u10_r1_network.node[113].content_store 	hits[113] 	3193
scalar tree_5_3_u10_r1_network.node[113].content_store 	misses[113] 	8664
scalar tree_5_3_u10_r1_network.node[113].content_store 	decision_yes[113] 	351
scalar tree_5_3_u10_r1_network.node[113].content_store 	decision_no[113] 	8313
scalar tree_5_3_u10_r1_network.node[113].content_store 	decision_ratio[113] 	0.040512465373961
scalar tree_5_3_u10_r1_network.node[114].core_layer 	interests[114] 	12058
scalar tree_5_3_u10_r1_network.node[114].core_layer 	data[114] 	8845
scalar tree_5_3_u10_r1_network.node[114].content_store 	p_hit[114] 	0.26637916735777
scalar tree_5_3_u10_r1_network.node[114].content_store 	hits[114] 	3212
scalar tree_5_3_u10_r1_network.node[114].content_store 	misses[114] 	8846
scalar tree_5_3_u10_r1_network.node[114].content_store 	decision_yes[114] 	367
scalar tree_5_3_u10_r1_network.node[114].content_store 	decision_no[114] 	8478
scalar tree_5_3_u10_r1_network.node[114].content_store 	decision_ratio[114] 	0.041492368569813
scalar tree_5_3_u10_r1_network.node[115].core_layer 	interests[115] 	12117
scalar tree_5_3_u10_r1_network.node[115].core_layer 	data[115] 	8909
scalar tree_5_3_u10_r1_network.node[115].content_store 	p_hit[115] 	0.26466947264174
scalar tree_5_3_u10_r1_network.node[115].content_store 	hits[115] 	3207
scalar tree_5_3_u10_r1_network.node[115].content_store 	misses[115] 	8910
scalar tree_5_3_u10_r1_network.node[115].content_store 	decision_yes[115] 	392
scalar tree_5_3_u10_r1_network.node[115].content_store 	decision_no[115] 	8517
scalar tree_5_3_u10_r1_network.node[115].content_store 	decision_ratio[115] 	0.044000448984173
scalar tree_5_3_u10_r1_network.node[116].core_layer 	interests[116] 	11841
scalar tree_5_3_u10_r1_network.node[116].core_layer 	data[116] 	8762
scalar tree_5_3_u10_r1_network.node[116].content_store 	p_hit[116] 	0.26002871379106
scalar tree_5_3_u10_r1_network.node[116].content_store 	hits[116] 	3079
scalar tree_5_3_u10_r1_network.node[116].content_store 	misses[116] 	8762
scalar tree_5_3_u10_r1_network.node[116].content_store 	decision_yes[116] 	315
scalar tree_5_3_u10_r1_network.node[116].content_store 	decision_no[116] 	8447
scalar tree_5_3_u10_r1_network.node[116].content_store 	decision_ratio[116] 	0.035950696188085
scalar tree_5_3_u10_r1_network.node[117].core_layer 	interests[117] 	11888
scalar tree_5_3_u10_r1_network.node[117].core_layer 	data[117] 	8793
scalar tree_5_3_u10_r1_network.node[117].content_store 	p_hit[117] 	0.2603465679677
scalar tree_5_3_u10_r1_network.node[117].content_store 	hits[117] 	3095
scalar tree_5_3_u10_r1_network.node[117].content_store 	misses[117] 	8793
scalar tree_5_3_u10_r1_network.node[117].content_store 	decision_yes[117] 	273
scalar tree_5_3_u10_r1_network.node[117].content_store 	decision_no[117] 	8520
scalar tree_5_3_u10_r1_network.node[117].content_store 	decision_ratio[117] 	0.031047424087342
scalar tree_5_3_u10_r1_network.node[118].core_layer 	interests[118] 	11928
scalar tree_5_3_u10_r1_network.node[118].core_layer 	data[118] 	8745
scalar tree_5_3_u10_r1_network.node[118].content_store 	p_hit[118] 	0.2667672702884
scalar tree_5_3_u10_r1_network.node[118].content_store 	hits[118] 	3182
scalar tree_5_3_u10_r1_network.node[118].content_store 	misses[118] 	8746
scalar tree_5_3_u10_r1_network.node[118].content_store 	decision_yes[118] 	339
scalar tree_5_3_u10_r1_network.node[118].content_store 	decision_no[118] 	8406
scalar tree_5_3_u10_r1_network.node[118].content_store 	decision_ratio[118] 	0.038765008576329
scalar tree_5_3_u10_r1_network.node[119].core_layer 	interests[119] 	12020
scalar tree_5_3_u10_r1_network.node[119].core_layer 	data[119] 	8839
scalar tree_5_3_u10_r1_network.node[119].content_store 	p_hit[119] 	0.26464226289517
scalar tree_5_3_u10_r1_network.node[119].content_store 	hits[119] 	3181
scalar tree_5_3_u10_r1_network.node[119].content_store 	misses[119] 	8839
scalar tree_5_3_u10_r1_network.node[119].content_store 	decision_yes[119] 	293
scalar tree_5_3_u10_r1_network.node[119].content_store 	decision_no[119] 	8546
scalar tree_5_3_u10_r1_network.node[119].content_store 	decision_ratio[119] 	0.033148546215635
scalar tree_5_3_u10_r1_network.node[120].core_layer 	interests[120] 	11914
scalar tree_5_3_u10_r1_network.node[120].core_layer 	data[120] 	8774
scalar tree_5_3_u10_r1_network.node[120].content_store 	p_hit[120] 	0.26355548094679
scalar tree_5_3_u10_r1_network.node[120].content_store 	hits[120] 	3140
scalar tree_5_3_u10_r1_network.node[120].content_store 	misses[120] 	8774
scalar tree_5_3_u10_r1_network.node[120].content_store 	decision_yes[120] 	179
scalar tree_5_3_u10_r1_network.node[120].content_store 	decision_no[120] 	8595
scalar tree_5_3_u10_r1_network.node[120].content_store 	decision_ratio[120] 	0.020401185320264
scalar tree_5_3_u10_r1_network.client[40] 	hdistance[40] 	3.4531262837893
scalar tree_5_3_u10_r1_network.client[40] 	downloads[40] 	12171
scalar tree_5_3_u10_r1_network.client[40] 	avg_time[40] 	0.005575485725
scalar tree_5_3_u10_r1_network.client[41] 	hdistance[41] 	3.4517643114576
scalar tree_5_3_u10_r1_network.client[41] 	downloads[41] 	11931
scalar tree_5_3_u10_r1_network.client[41] 	avg_time[41] 	0.005572002235
scalar tree_5_3_u10_r1_network.client[42] 	hdistance[42] 	3.4833586754519
scalar tree_5_3_u10_r1_network.client[42] 	downloads[42] 	11838
scalar tree_5_3_u10_r1_network.client[42] 	avg_time[42] 	0.005623676557
scalar tree_5_3_u10_r1_network.client[43] 	hdistance[43] 	3.4873279624035
scalar tree_5_3_u10_r1_network.client[43] 	downloads[43] 	11916
scalar tree_5_3_u10_r1_network.client[43] 	avg_time[43] 	0.005627015932
scalar tree_5_3_u10_r1_network.client[44] 	hdistance[44] 	3.4565486506561
scalar tree_5_3_u10_r1_network.client[44] 	downloads[44] 	12117
scalar tree_5_3_u10_r1_network.client[44] 	avg_time[44] 	0.005578821985
scalar tree_5_3_u10_r1_network.client[45] 	hdistance[45] 	3.454590123659
scalar tree_5_3_u10_r1_network.client[45] 	downloads[45] 	12211
scalar tree_5_3_u10_r1_network.client[45] 	avg_time[45] 	0.005577864985
scalar tree_5_3_u10_r1_network.client[46] 	hdistance[46] 	3.490569215224
scalar tree_5_3_u10_r1_network.client[46] 	downloads[46] 	11876
scalar tree_5_3_u10_r1_network.client[46] 	avg_time[46] 	0.00563371211
scalar tree_5_3_u10_r1_network.client[47] 	hdistance[47] 	3.4776392352452
scalar tree_5_3_u10_r1_network.client[47] 	downloads[47] 	12030
scalar tree_5_3_u10_r1_network.client[47] 	avg_time[47] 	0.005610859485
scalar tree_5_3_u10_r1_network.client[48] 	hdistance[48] 	3.4392084521214
scalar tree_5_3_u10_r1_network.client[48] 	downloads[48] 	11926
scalar tree_5_3_u10_r1_network.client[48] 	avg_time[48] 	0.005551177448
scalar tree_5_3_u10_r1_network.client[49] 	hdistance[49] 	3.4575874184373
scalar tree_5_3_u10_r1_network.client[49] 	downloads[49] 	11954
scalar tree_5_3_u10_r1_network.client[49] 	avg_time[49] 	0.005579050079
scalar tree_5_3_u10_r1_network.client[50] 	hdistance[50] 	3.4488896282126
scalar tree_5_3_u10_r1_network.client[50] 	downloads[50] 	12023
scalar tree_5_3_u10_r1_network.client[50] 	avg_time[50] 	0.005568045822
scalar tree_5_3_u10_r1_network.client[51] 	hdistance[51] 	3.4761904761905
scalar tree_5_3_u10_r1_network.client[51] 	downloads[51] 	11739
scalar tree_5_3_u10_r1_network.client[51] 	avg_time[51] 	0.005605837612
scalar tree_5_3_u10_r1_network.client[52] 	hdistance[52] 	3.4832388258839
scalar tree_5_3_u10_r1_network.client[52] 	downloads[52] 	11992
scalar tree_5_3_u10_r1_network.client[52] 	avg_time[52] 	0.005617205109
scalar tree_5_3_u10_r1_network.client[53] 	hdistance[53] 	3.4656546171266
scalar tree_5_3_u10_r1_network.client[53] 	downloads[53] 	11923
scalar tree_5_3_u10_r1_network.client[53] 	avg_time[53] 	0.005593976281
scalar tree_5_3_u10_r1_network.client[54] 	hdistance[54] 	3.4708941452776
scalar tree_5_3_u10_r1_network.client[54] 	downloads[54] 	11922
scalar tree_5_3_u10_r1_network.client[54] 	avg_time[54] 	0.00560459972
scalar tree_5_3_u10_r1_network.client[55] 	hdistance[55] 	3.4547559966915
scalar tree_5_3_u10_r1_network.client[55] 	downloads[55] 	12090
scalar tree_5_3_u10_r1_network.client[55] 	avg_time[55] 	0.00557551393
scalar tree_5_3_u10_r1_network.client[56] 	hdistance[56] 	3.4312919463087
scalar tree_5_3_u10_r1_network.client[56] 	downloads[56] 	11920
scalar tree_5_3_u10_r1_network.client[56] 	avg_time[56] 	0.005538782174
scalar tree_5_3_u10_r1_network.client[57] 	hdistance[57] 	3.4650693568726
scalar tree_5_3_u10_r1_network.client[57] 	downloads[57] 	11895
scalar tree_5_3_u10_r1_network.client[57] 	avg_time[57] 	0.005600837714
scalar tree_5_3_u10_r1_network.client[58] 	hdistance[58] 	3.4740330564645
scalar tree_5_3_u10_r1_network.client[58] 	downloads[58] 	11919
scalar tree_5_3_u10_r1_network.client[58] 	avg_time[58] 	0.005608085602
scalar tree_5_3_u10_r1_network.client[59] 	hdistance[59] 	3.4668452779638
scalar tree_5_3_u10_r1_network.client[59] 	downloads[59] 	11944
scalar tree_5_3_u10_r1_network.client[59] 	avg_time[59] 	0.005595461097
scalar tree_5_3_u10_r1_network.client[60] 	hdistance[60] 	3.473248620632
scalar tree_5_3_u10_r1_network.client[60] 	downloads[60] 	11962
scalar tree_5_3_u10_r1_network.client[60] 	avg_time[60] 	0.00560325312
scalar tree_5_3_u10_r1_network.client[61] 	hdistance[61] 	3.479123943893
scalar tree_5_3_u10_r1_network.client[61] 	downloads[61] 	12191
scalar tree_5_3_u10_r1_network.client[61] 	avg_time[61] 	0.005613232211
scalar tree_5_3_u10_r1_network.client[62] 	hdistance[62] 	3.4523053792182
scalar tree_5_3_u10_r1_network.client[62] 	downloads[62] 	11972
scalar tree_5_3_u10_r1_network.client[62] 	avg_time[62] 	0.005576842989
scalar tree_5_3_u10_r1_network.client[63] 	hdistance[63] 	3.434074197861
scalar tree_5_3_u10_r1_network.client[63] 	downloads[63] 	11968
scalar tree_5_3_u10_r1_network.client[63] 	avg_time[63] 	0.005545346076
scalar tree_5_3_u10_r1_network.client[64] 	hdistance[64] 	3.4665167416292
scalar tree_5_3_u10_r1_network.client[64] 	downloads[64] 	12006
scalar tree_5_3_u10_r1_network.client[64] 	avg_time[64] 	0.005595672869
scalar tree_5_3_u10_r1_network.client[65] 	hdistance[65] 	3.4822343414312
scalar tree_5_3_u10_r1_network.client[65] 	downloads[65] 	12102
scalar tree_5_3_u10_r1_network.client[65] 	avg_time[65] 	0.005623997332
scalar tree_5_3_u10_r1_network.client[66] 	hdistance[66] 	3.4777935172069
scalar tree_5_3_u10_r1_network.client[66] 	downloads[66] 	12001
scalar tree_5_3_u10_r1_network.client[66] 	avg_time[66] 	0.005616903384
scalar tree_5_3_u10_r1_network.client[67] 	hdistance[67] 	3.464934623875
scalar tree_5_3_u10_r1_network.client[67] 	downloads[67] 	11778
scalar tree_5_3_u10_r1_network.client[67] 	avg_time[67] 	0.005592117934
scalar tree_5_3_u10_r1_network.client[68] 	hdistance[68] 	3.5151565210209
scalar tree_5_3_u10_r1_network.client[68] 	downloads[68] 	12107
scalar tree_5_3_u10_r1_network.client[68] 	avg_time[68] 	0.005665534964
scalar tree_5_3_u10_r1_network.client[69] 	hdistance[69] 	3.4296810444555
scalar tree_5_3_u10_r1_network.client[69] 	downloads[69] 	12102
scalar tree_5_3_u10_r1_network.client[69] 	avg_time[69] 	0.005532680548
scalar tree_5_3_u10_r1_network.client[70] 	hdistance[70] 	3.4867106822414
scalar tree_5_3_u10_r1_network.client[70] 	downloads[70] 	11814
scalar tree_5_3_u10_r1_network.client[70] 	avg_time[70] 	0.005628490416
scalar tree_5_3_u10_r1_network.client[71] 	hdistance[71] 	3.4521034796264
scalar tree_5_3_u10_r1_network.client[71] 	downloads[71] 	12099
scalar tree_5_3_u10_r1_network.client[71] 	avg_time[71] 	0.005573291885
scalar tree_5_3_u10_r1_network.client[72] 	hdistance[72] 	3.4503887762001
scalar tree_5_3_u10_r1_network.client[72] 	downloads[72] 	11832
scalar tree_5_3_u10_r1_network.client[72] 	avg_time[72] 	0.005566065228
scalar tree_5_3_u10_r1_network.client[73] 	hdistance[73] 	3.4339811493869
scalar tree_5_3_u10_r1_network.client[73] 	downloads[73] 	11989
scalar tree_5_3_u10_r1_network.client[73] 	avg_time[73] 	0.005541454636
scalar tree_5_3_u10_r1_network.client[74] 	hdistance[74] 	3.4672719768882
scalar tree_5_3_u10_r1_network.client[74] 	downloads[74] 	12115
scalar tree_5_3_u10_r1_network.client[74] 	avg_time[74] 	0.005595036281
scalar tree_5_3_u10_r1_network.client[75] 	hdistance[75] 	3.497263681592
scalar tree_5_3_u10_r1_network.client[75] 	downloads[75] 	12060
scalar tree_5_3_u10_r1_network.client[75] 	avg_time[75] 	0.005645182588
scalar tree_5_3_u10_r1_network.client[76] 	hdistance[76] 	3.4745692166819
scalar tree_5_3_u10_r1_network.client[76] 	downloads[76] 	12013
scalar tree_5_3_u10_r1_network.client[76] 	avg_time[76] 	0.005611082406
scalar tree_5_3_u10_r1_network.client[77] 	hdistance[77] 	3.4532362053085
scalar tree_5_3_u10_r1_network.client[77] 	downloads[77] 	11943
scalar tree_5_3_u10_r1_network.client[77] 	avg_time[77] 	0.005574569167
scalar tree_5_3_u10_r1_network.client[78] 	hdistance[78] 	3.4523749895651
scalar tree_5_3_u10_r1_network.client[78] 	downloads[78] 	11979
scalar tree_5_3_u10_r1_network.client[78] 	avg_time[78] 	0.005571628347
scalar tree_5_3_u10_r1_network.client[79] 	hdistance[79] 	3.5074515648286
scalar tree_5_3_u10_r1_network.client[79] 	downloads[79] 	12078
scalar tree_5_3_u10_r1_network.client[79] 	avg_time[79] 	0.005655565337
scalar tree_5_3_u10_r1_network.client[80] 	hdistance[80] 	3.5257645580226
scalar tree_5_3_u10_r1_network.client[80] 	downloads[80] 	11935
scalar tree_5_3_u10_r1_network.client[80] 	avg_time[80] 	0.00568162068
scalar tree_5_3_u10_r1_network.client[81] 	hdistance[81] 	3.5055527511358
scalar tree_5_3_u10_r1_network.client[81] 	downloads[81] 	11886
scalar tree_5_3_u10_r1_network.client[81] 	avg_time[81] 	0.005649164122
scalar tree_5_3_u10_r1_network.client[82] 	hdistance[82] 	3.472144387671
scalar tree_5_3_u10_r1_network.client[82] 	downloads[82] 	12134
scalar tree_5_3_u10_r1_network.client[82] 	avg_time[82] 	0.00560363464
scalar tree_5_3_u10_r1_network.client[83] 	hdistance[83] 	3.5156828846629
scalar tree_5_3_u10_r1_network.client[83] 	downloads[83] 	12147
scalar tree_5_3_u10_r1_network.client[83] 	avg_time[83] 	0.005665251763
scalar tree_5_3_u10_r1_network.client[84] 	hdistance[84] 	3.5177100494234
scalar tree_5_3_u10_r1_network.client[84] 	downloads[84] 	12140
scalar tree_5_3_u10_r1_network.client[84] 	avg_time[84] 	0.005671081883
scalar tree_5_3_u10_r1_network.client[85] 	hdistance[85] 	3.5082415306883
scalar tree_5_3_u10_r1_network.client[85] 	downloads[85] 	12073
scalar tree_5_3_u10_r1_network.client[85] 	avg_time[85] 	0.005661721498
scalar tree_5_3_u10_r1_network.client[86] 	hdistance[86] 	3.4721837582471
scalar tree_5_3_u10_r1_network.client[86] 	downloads[86] 	12277
scalar tree_5_3_u10_r1_network.client[86] 	avg_time[86] 	0.005605021678
scalar tree_5_3_u10_r1_network.client[87] 	hdistance[87] 	3.4520285999335
scalar tree_5_3_u10_r1_network.client[87] 	downloads[87] 	12028
scalar tree_5_3_u10_r1_network.client[87] 	avg_time[87] 	0.0055678348
scalar tree_5_3_u10_r1_network.client[88] 	hdistance[88] 	3.4745596067186
scalar tree_5_3_u10_r1_network.client[88] 	downloads[88] 	12205
scalar tree_5_3_u10_r1_network.client[88] 	avg_time[88] 	0.005608893493
scalar tree_5_3_u10_r1_network.client[89] 	hdistance[89] 	3.5272125723739
scalar tree_5_3_u10_r1_network.client[89] 	downloads[89] 	12090
scalar tree_5_3_u10_r1_network.client[89] 	avg_time[89] 	0.005681515706
scalar tree_5_3_u10_r1_network.client[90] 	hdistance[90] 	3.5342316705725
scalar tree_5_3_u10_r1_network.client[90] 	downloads[90] 	11948
scalar tree_5_3_u10_r1_network.client[90] 	avg_time[90] 	0.005695678282
scalar tree_5_3_u10_r1_network.client[91] 	hdistance[91] 	3.4862545818061
scalar tree_5_3_u10_r1_network.client[91] 	downloads[91] 	12004
scalar tree_5_3_u10_r1_network.client[91] 	avg_time[91] 	0.005625748995
scalar tree_5_3_u10_r1_network.client[92] 	hdistance[92] 	3.5127842092113
scalar tree_5_3_u10_r1_network.client[92] 	downloads[92] 	12007
scalar tree_5_3_u10_r1_network.client[92] 	avg_time[92] 	0.005662027467
scalar tree_5_3_u10_r1_network.client[93] 	hdistance[93] 	3.4670992429914
scalar tree_5_3_u10_r1_network.client[93] 	downloads[93] 	12021
scalar tree_5_3_u10_r1_network.client[93] 	avg_time[93] 	0.00559836652
scalar tree_5_3_u10_r1_network.client[94] 	hdistance[94] 	3.4674914888317
scalar tree_5_3_u10_r1_network.client[94] 	downloads[94] 	12043
scalar tree_5_3_u10_r1_network.client[94] 	avg_time[94] 	0.005595681063
scalar tree_5_3_u10_r1_network.client[95] 	hdistance[95] 	3.481971551439
scalar tree_5_3_u10_r1_network.client[95] 	downloads[95] 	12092
scalar tree_5_3_u10_r1_network.client[95] 	avg_time[95] 	0.005617099206
scalar tree_5_3_u10_r1_network.client[96] 	hdistance[96] 	3.4627891384512
scalar tree_5_3_u10_r1_network.client[96] 	downloads[96] 	11932
scalar tree_5_3_u10_r1_network.client[96] 	avg_time[96] 	0.00559018399
scalar tree_5_3_u10_r1_network.client[97] 	hdistance[97] 	3.4346313173157
scalar tree_5_3_u10_r1_network.client[97] 	downloads[97] 	12070
scalar tree_5_3_u10_r1_network.client[97] 	avg_time[97] 	0.005541504858
scalar tree_5_3_u10_r1_network.client[98] 	hdistance[98] 	3.4754865730475
scalar tree_5_3_u10_r1_network.client[98] 	downloads[98] 	12177
scalar tree_5_3_u10_r1_network.client[98] 	avg_time[98] 	0.005609637374
scalar tree_5_3_u10_r1_network.client[99] 	hdistance[99] 	3.4478178368121
scalar tree_5_3_u10_r1_network.client[99] 	downloads[99] 	12121
scalar tree_5_3_u10_r1_network.client[99] 	avg_time[99] 	0.005564834269
scalar tree_5_3_u10_r1_network.client[100] 	hdistance[100] 	3.4541459369818
scalar tree_5_3_u10_r1_network.client[100] 	downloads[100] 	12060
scalar tree_5_3_u10_r1_network.client[100] 	avg_time[100] 	0.005574252376
scalar tree_5_3_u10_r1_network.client[101] 	hdistance[101] 	3.5020356234097
scalar tree_5_3_u10_r1_network.client[101] 	downloads[101] 	11790
scalar tree_5_3_u10_r1_network.client[101] 	avg_time[101] 	0.005650209082
scalar tree_5_3_u10_r1_network.client[102] 	hdistance[102] 	3.4676271044476
scalar tree_5_3_u10_r1_network.client[102] 	downloads[102] 	11939
scalar tree_5_3_u10_r1_network.client[102] 	avg_time[102] 	0.005598686011
scalar tree_5_3_u10_r1_network.client[103] 	hdistance[103] 	3.4257984238905
scalar tree_5_3_u10_r1_network.client[103] 	downloads[103] 	12055
scalar tree_5_3_u10_r1_network.client[103] 	avg_time[103] 	0.005531145894
scalar tree_5_3_u10_r1_network.client[104] 	hdistance[104] 	3.5055569276365
scalar tree_5_3_u10_r1_network.client[104] 	downloads[104] 	12147
scalar tree_5_3_u10_r1_network.client[104] 	avg_time[104] 	0.005655631848
scalar tree_5_3_u10_r1_network.client[105] 	hdistance[105] 	3.4581931566423
scalar tree_5_3_u10_r1_network.client[105] 	downloads[105] 	12187
scalar tree_5_3_u10_r1_network.client[105] 	avg_time[105] 	0.005581545162
scalar tree_5_3_u10_r1_network.client[106] 	hdistance[106] 	3.4495390187685
scalar tree_5_3_u10_r1_network.client[106] 	downloads[106] 	12148
scalar tree_5_3_u10_r1_network.client[106] 	avg_time[106] 	0.005566212824
scalar tree_5_3_u10_r1_network.client[107] 	hdistance[107] 	3.5000420132762
scalar tree_5_3_u10_r1_network.client[107] 	downloads[107] 	11901
scalar tree_5_3_u10_r1_network.client[107] 	avg_time[107] 	0.005638682872
scalar tree_5_3_u10_r1_network.client[108] 	hdistance[108] 	3.5022033898305
scalar tree_5_3_u10_r1_network.client[108] 	downloads[108] 	11800
scalar tree_5_3_u10_r1_network.client[108] 	avg_time[108] 	0.005642878432
scalar tree_5_3_u10_r1_network.client[109] 	hdistance[109] 	3.4917896831979
scalar tree_5_3_u10_r1_network.client[109] 	downloads[109] 	12058
scalar tree_5_3_u10_r1_network.client[109] 	avg_time[109] 	0.005632496182
scalar tree_5_3_u10_r1_network.client[110] 	hdistance[110] 	3.5312132908206
scalar tree_5_3_u10_r1_network.client[110] 	downloads[110] 	11918
scalar tree_5_3_u10_r1_network.client[110] 	avg_time[110] 	0.005690561214
scalar tree_5_3_u10_r1_network.client[111] 	hdistance[111] 	3.4614052449283
scalar tree_5_3_u10_r1_network.client[111] 	downloads[111] 	12126
scalar tree_5_3_u10_r1_network.client[111] 	avg_time[111] 	0.005578918287
scalar tree_5_3_u10_r1_network.client[112] 	hdistance[112] 	3.5117504390733
scalar tree_5_3_u10_r1_network.client[112] 	downloads[112] 	11957
scalar tree_5_3_u10_r1_network.client[112] 	avg_time[112] 	0.005663484419
scalar tree_5_3_u10_r1_network.client[113] 	hdistance[113] 	3.4561862191111
scalar tree_5_3_u10_r1_network.client[113] 	downloads[113] 	11857
scalar tree_5_3_u10_r1_network.client[113] 	avg_time[113] 	0.005576994684
scalar tree_5_3_u10_r1_network.client[114] 	hdistance[114] 	3.4682756904703
scalar tree_5_3_u10_r1_network.client[114] 	downloads[114] 	12057
scalar tree_5_3_u10_r1_network.client[114] 	avg_time[114] 	0.00559676963
scalar tree_5_3_u10_r1_network.client[115] 	hdistance[115] 	3.4662429844833
scalar tree_5_3_u10_r1_network.client[115] 	downloads[115] 	12116
scalar tree_5_3_u10_r1_network.client[115] 	avg_time[115] 	0.005593661358
scalar tree_5_3_u10_r1_network.client[116] 	hdistance[116] 	3.5276581369817
scalar tree_5_3_u10_r1_network.client[116] 	downloads[116] 	11841
scalar tree_5_3_u10_r1_network.client[116] 	avg_time[116] 	0.005686779289
scalar tree_5_3_u10_r1_network.client[117] 	hdistance[117] 	3.5450033647376
scalar tree_5_3_u10_r1_network.client[117] 	downloads[117] 	11888
scalar tree_5_3_u10_r1_network.client[117] 	avg_time[117] 	0.005710461374
scalar tree_5_3_u10_r1_network.client[118] 	hdistance[118] 	3.4747212207596
scalar tree_5_3_u10_r1_network.client[118] 	downloads[118] 	11927
scalar tree_5_3_u10_r1_network.client[118] 	avg_time[118] 	0.005607279793
scalar tree_5_3_u10_r1_network.client[119] 	hdistance[119] 	3.5162229617304
scalar tree_5_3_u10_r1_network.client[119] 	downloads[119] 	12020
scalar tree_5_3_u10_r1_network.client[119] 	avg_time[119] 	0.005665310217
scalar tree_5_3_u10_r1_network.client[120] 	hdistance[120] 	3.5830955178781
scalar tree_5_3_u10_r1_network.client[120] 	downloads[120] 	11914
scalar tree_5_3_u10_r1_network.client[120] 	avg_time[120] 	0.005761789856
