version 2
run General-35-20160826-10:47:42-19693
attr D ffc0.05
attr F nrr
attr R lru
attr a 0.9
attr configname General
attr datetime 20160826-10:47:42
attr experiment General
attr inifile hw5115/scenario_C/omnetp.ini
attr iterationvars "$net=tiger, $rep=4, $a=0.9, $F=nrr, $D=ffc0.05, $R=lru, $window=60, $variance=0.05, $mytime=600"
attr iterationvars2 "$net=tiger, $rep=4, $a=0.9, $F=nrr, $D=ffc0.05, $R=lru, $window=60, $variance=0.05, $mytime=600, $repetition=0"
attr measurement "$net=tiger, $rep=4, $a=0.9, $F=nrr, $D=ffc0.05, $R=lru, $window=60, $variance=0.05, $mytime=600"
attr mytime 600
attr net tiger
attr network networks.${net=tiger}_network
attr processid 19693
attr rep 4
attr repetition 0
attr replication #0
attr resultdir results
attr runnumber 35
attr seedset 4
attr variance 0.05
attr window 60

scalar . 	a 	0.9
scalar . 	mytime 	600
scalar . 	rep 	4
scalar . 	variance 	0.05
scalar . 	window 	60
scalar tiger_network.content_distribution 	repo-0 	18
scalar tiger_network.content_distribution 	repo-1 	16
scalar tiger_network.content_distribution 	repo-2 	10
scalar tiger_network.content_distribution 	repo-3 	6
scalar tiger_network.content_distribution 	repo-4 	2
scalar tiger_network.content_distribution 	repo-5 	20
scalar tiger_network.content_distribution 	repo-6 	12
scalar tiger_network.content_distribution 	repo-7 	3
scalar tiger_network.content_distribution 	repo-8 	14
scalar tiger_network.content_distribution 	repo-9 	5
scalar tiger_network.content_distribution 	repo-10 	13
scalar tiger_network.content_distribution 	repo-11 	9
scalar tiger_network.content_distribution 	repo-12 	11
scalar tiger_network.content_distribution 	repo-13 	0
scalar tiger_network.content_distribution 	repo-14 	19
scalar tiger_network.content_distribution 	repo-15 	21
scalar tiger_network.content_distribution 	client-0 	21
scalar tiger_network.content_distribution 	client-1 	9
scalar tiger_network.content_distribution 	client-2 	6
scalar tiger_network.content_distribution 	client-3 	2
scalar tiger_network.content_distribution 	client-4 	14
scalar tiger_network.content_distribution 	client-5 	8
scalar tiger_network.content_distribution 	client-6 	17
scalar tiger_network.content_distribution 	client-7 	0
scalar tiger_network.content_distribution 	client-8 	19
scalar tiger_network.content_distribution 	client-9 	10
scalar tiger_network.content_distribution 	client-10 	13
scalar tiger_network.content_distribution 	client-11 	1
scalar tiger_network.content_distribution 	client-12 	3
scalar tiger_network.content_distribution 	client-13 	18
scalar tiger_network.content_distribution 	client-14 	15
scalar tiger_network.content_distribution 	client-15 	16
scalar tiger_network.content_distribution 	client-16 	12
scalar tiger_network.content_distribution 	client-17 	11
scalar tiger_network.content_distribution 	client-18 	7
scalar tiger_network.content_distribution 	client-19 	4
scalar tiger_network.content_distribution 	client-20 	5
scalar tiger_network.content_distribution 	client-21 	20
scalar tiger_network.content_distribution 	repo-0_card 	6113
scalar tiger_network.content_distribution 	repo-0_price 	0
scalar tiger_network.content_distribution 	repo-1_card 	6294
scalar tiger_network.content_distribution 	repo-1_price 	0
scalar tiger_network.content_distribution 	repo-2_card 	6315
scalar tiger_network.content_distribution 	repo-2_price 	0
scalar tiger_network.content_distribution 	repo-3_card 	6169
scalar tiger_network.content_distribution 	repo-3_price 	0
scalar tiger_network.content_distribution 	repo-4_card 	6306
scalar tiger_network.content_distribution 	repo-4_price 	0
scalar tiger_network.content_distribution 	repo-5_card 	6221
scalar tiger_network.content_distribution 	repo-5_price 	0
scalar tiger_network.content_distribution 	repo-6_card 	6389
scalar tiger_network.content_distribution 	repo-6_price 	0
scalar tiger_network.content_distribution 	repo-7_card 	6226
scalar tiger_network.content_distribution 	repo-7_price 	0
scalar tiger_network.content_distribution 	repo-8_card 	6293
scalar tiger_network.content_distribution 	repo-8_price 	0
scalar tiger_network.content_distribution 	repo-9_card 	6212
scalar tiger_network.content_distribution 	repo-9_price 	0
scalar tiger_network.content_distribution 	repo-10_card 	6328
scalar tiger_network.content_distribution 	repo-10_price 	0
scalar tiger_network.content_distribution 	repo-11_card 	6234
scalar tiger_network.content_distribution 	repo-11_price 	0
scalar tiger_network.content_distribution 	repo-12_card 	6163
scalar tiger_network.content_distribution 	repo-12_price 	0
scalar tiger_network.content_distribution 	repo-13_card 	6137
scalar tiger_network.content_distribution 	repo-13_price 	0
scalar tiger_network.content_distribution 	repo-14_card 	6292
scalar tiger_network.content_distribution 	repo-14_price 	0
scalar tiger_network.content_distribution 	repo-15_card 	6308
scalar tiger_network.content_distribution 	repo-15_price 	0
scalar tiger_network.statistics 	stabilization_time 	1776.5
scalar tiger_network.statistics 	p_hit 	0.16341574240948
scalar tiger_network.statistics 	interests 	33809.590909091
scalar tiger_network.statistics 	data 	21804.181818182
scalar tiger_network.statistics 	hdistance 	2.3772231675231
scalar tiger_network.statistics 	avg_time 	0.000666649247
scalar tiger_network.statistics 	downloads 	264122
scalar tiger_network.statistics 	total_cost 	0
scalar tiger_network.statistics 	total_replicas 	100000
scalar tiger_network.statistics 	inner_hit 	0.43938028638281
scalar tiger_network.node[0].core_layer 	interests[0] 	48527
scalar tiger_network.node[0].core_layer 	repo_load[0] 	9259
scalar tiger_network.node[0].core_layer 	data[0] 	33530
scalar tiger_network.node[0].core_layer 	repo_int[0] 	148072
scalar tiger_network.node[0].content_store 	p_hit[0] 	0.11824345209883
scalar tiger_network.node[0].content_store 	hits[0] 	5738
scalar tiger_network.node[0].content_store 	misses[0] 	42789
scalar tiger_network.node[0].content_store 	decision_yes[0] 	16
scalar tiger_network.node[0].content_store 	decision_no[0] 	42773
scalar tiger_network.node[0].content_store 	decision_ratio[0] 	0.0003739278786604
scalar tiger_network.node[1].core_layer 	interests[1] 	40108
scalar tiger_network.node[1].core_layer 	data[1] 	34342
scalar tiger_network.node[1].content_store 	p_hit[1] 	0.14376184302384
scalar tiger_network.node[1].content_store 	hits[1] 	5766
scalar tiger_network.node[1].content_store 	misses[1] 	34342
scalar tiger_network.node[1].content_store 	decision_yes[1] 	26
scalar tiger_network.node[1].content_store 	decision_no[1] 	34316
scalar tiger_network.node[1].content_store 	decision_ratio[1] 	0.0007570904431891
scalar tiger_network.node[2].core_layer 	interests[2] 	55278
scalar tiger_network.node[2].core_layer 	repo_load[2] 	10466
scalar tiger_network.node[2].core_layer 	data[2] 	38744
scalar tiger_network.node[2].content_store 	p_hit[2] 	0.10977242302544
scalar tiger_network.node[2].content_store 	hits[2] 	6068
scalar tiger_network.node[2].content_store 	misses[2] 	49210
scalar tiger_network.node[2].content_store 	decision_yes[2] 	25
scalar tiger_network.node[2].content_store 	decision_no[2] 	49185
scalar tiger_network.node[2].content_store 	decision_ratio[2] 	0.0005080268238163
scalar tiger_network.node[3].core_layer 	interests[3] 	47031
scalar tiger_network.node[3].core_layer 	repo_load[3] 	9762
scalar tiger_network.node[3].core_layer 	data[3] 	31609
scalar tiger_network.node[3].content_store 	p_hit[3] 	0.12034615466395
scalar tiger_network.node[3].content_store 	hits[3] 	5660
scalar tiger_network.node[3].content_store 	misses[3] 	41371
scalar tiger_network.node[3].content_store 	decision_yes[3] 	28
scalar tiger_network.node[3].content_store 	decision_no[3] 	41343
scalar tiger_network.node[3].content_store 	decision_ratio[3] 	0.00067680259118706
scalar tiger_network.node[4].core_layer 	interests[4] 	30595
scalar tiger_network.node[4].core_layer 	data[4] 	25384
scalar tiger_network.node[4].content_store 	p_hit[4] 	0.17035463310999
scalar tiger_network.node[4].content_store 	hits[4] 	5212
scalar tiger_network.node[4].content_store 	misses[4] 	25383
scalar tiger_network.node[4].content_store 	decision_yes[4] 	22
scalar tiger_network.node[4].content_store 	decision_no[4] 	25362
scalar tiger_network.node[4].content_store 	decision_ratio[4] 	0.00086668767727702
scalar tiger_network.node[5].core_layer 	interests[5] 	24631
scalar tiger_network.node[5].core_layer 	repo_load[5] 	8578
scalar tiger_network.node[5].core_layer 	data[5] 	11144
scalar tiger_network.node[5].content_store 	p_hit[5] 	0.19930169298851
scalar tiger_network.node[5].content_store 	hits[5] 	4909
scalar tiger_network.node[5].content_store 	misses[5] 	19722
scalar tiger_network.node[5].content_store 	decision_yes[5] 	20
scalar tiger_network.node[5].content_store 	decision_no[5] 	19702
scalar tiger_network.node[5].content_store 	decision_ratio[5] 	0.0010140959334753
scalar tiger_network.node[6].core_layer 	interests[6] 	33447
scalar tiger_network.node[6].core_layer 	repo_load[6] 	9435
scalar tiger_network.node[6].core_layer 	data[6] 	18756
scalar tiger_network.node[6].content_store 	p_hit[6] 	0.15714413848776
scalar tiger_network.node[6].content_store 	hits[6] 	5256
scalar tiger_network.node[6].content_store 	misses[6] 	28191
scalar tiger_network.node[6].content_store 	decision_yes[6] 	21
scalar tiger_network.node[6].content_store 	decision_no[6] 	28170
scalar tiger_network.node[6].content_store 	decision_ratio[6] 	0.00074491859103969
scalar tiger_network.node[7].core_layer 	interests[7] 	32570
scalar tiger_network.node[7].core_layer 	data[7] 	27117
scalar tiger_network.node[7].content_store 	p_hit[7] 	0.16742400982499
scalar tiger_network.node[7].content_store 	hits[7] 	5453
scalar tiger_network.node[7].content_store 	misses[7] 	27117
scalar tiger_network.node[7].content_store 	decision_yes[7] 	22
scalar tiger_network.node[7].content_store 	decision_no[7] 	27095
scalar tiger_network.node[7].content_store 	decision_ratio[7] 	0.00081129918501309
scalar tiger_network.node[8].core_layer 	interests[8] 	41057
scalar tiger_network.node[8].core_layer 	data[8] 	35191
scalar tiger_network.node[8].content_store 	p_hit[8] 	0.14287454027328
scalar tiger_network.node[8].content_store 	hits[8] 	5866
scalar tiger_network.node[8].content_store 	misses[8] 	35191
scalar tiger_network.node[8].content_store 	decision_yes[8] 	26
scalar tiger_network.node[8].content_store 	decision_no[8] 	35165
scalar tiger_network.node[8].content_store 	decision_ratio[8] 	0.00073882526782416
scalar tiger_network.node[9].core_layer 	interests[9] 	23888
scalar tiger_network.node[9].core_layer 	repo_load[9] 	8721
scalar tiger_network.node[9].core_layer 	data[9] 	10732
scalar tiger_network.node[9].content_store 	p_hit[9] 	0.18565807099799
scalar tiger_network.node[9].content_store 	hits[9] 	4435
scalar tiger_network.node[9].content_store 	misses[9] 	19453
scalar tiger_network.node[9].content_store 	decision_yes[9] 	16
scalar tiger_network.node[9].content_store 	decision_no[9] 	19437
scalar tiger_network.node[9].content_store 	decision_ratio[9] 	0.00082249524494937
scalar tiger_network.node[10].core_layer 	interests[10] 	28234
scalar tiger_network.node[10].core_layer 	repo_load[10] 	9238
scalar tiger_network.node[10].core_layer 	data[10] 	14599
scalar tiger_network.node[10].content_store 	p_hit[10] 	0.1557342211518
scalar tiger_network.node[10].content_store 	hits[10] 	4397
scalar tiger_network.node[10].content_store 	misses[10] 	23837
scalar tiger_network.node[10].content_store 	decision_yes[10] 	20
scalar tiger_network.node[10].content_store 	decision_no[10] 	23817
scalar tiger_network.node[10].content_store 	decision_ratio[10] 	0.00083903175735202
scalar tiger_network.node[11].core_layer 	interests[11] 	29592
scalar tiger_network.node[11].core_layer 	repo_load[11] 	8737
scalar tiger_network.node[11].core_layer 	data[11] 	15998
scalar tiger_network.node[11].content_store 	p_hit[11] 	0.16413219789132
scalar tiger_network.node[11].content_store 	hits[11] 	4857
scalar tiger_network.node[11].content_store 	misses[11] 	24735
scalar tiger_network.node[11].content_store 	decision_yes[11] 	28
scalar tiger_network.node[11].content_store 	decision_no[11] 	24707
scalar tiger_network.node[11].content_store 	decision_ratio[11] 	0.0011319991914291
scalar tiger_network.node[12].core_layer 	interests[12] 	40909
scalar tiger_network.node[12].core_layer 	repo_load[12] 	9731
scalar tiger_network.node[12].core_layer 	data[12] 	25117
scalar tiger_network.node[12].content_store 	p_hit[12] 	0.14815810701802
scalar tiger_network.node[12].content_store 	hits[12] 	6061
scalar tiger_network.node[12].content_store 	misses[12] 	34848
scalar tiger_network.node[12].content_store 	decision_yes[12] 	27
scalar tiger_network.node[12].content_store 	decision_no[12] 	34821
scalar tiger_network.node[12].content_store 	decision_ratio[12] 	0.00077479338842975
scalar tiger_network.node[13].core_layer 	interests[13] 	27385
scalar tiger_network.node[13].core_layer 	repo_load[13] 	9110
scalar tiger_network.node[13].core_layer 	data[13] 	13079
scalar tiger_network.node[13].content_store 	p_hit[13] 	0.1897389081614
scalar tiger_network.node[13].content_store 	hits[13] 	5196
scalar tiger_network.node[13].content_store 	misses[13] 	22189
scalar tiger_network.node[13].content_store 	decision_yes[13] 	18
scalar tiger_network.node[13].content_store 	decision_no[13] 	22171
scalar tiger_network.node[13].content_store 	decision_ratio[13] 	0.00081121276308081
scalar tiger_network.node[14].core_layer 	interests[14] 	24680
scalar tiger_network.node[14].core_layer 	repo_load[14] 	8978
scalar tiger_network.node[14].core_layer 	data[14] 	11108
scalar tiger_network.node[14].content_store 	p_hit[14] 	0.18614262560778
scalar tiger_network.node[14].content_store 	hits[14] 	4594
scalar tiger_network.node[14].content_store 	misses[14] 	20086
scalar tiger_network.node[14].content_store 	decision_yes[14] 	21
scalar tiger_network.node[14].content_store 	decision_no[14] 	20065
scalar tiger_network.node[14].content_store 	decision_ratio[14] 	0.0010455043313751
scalar tiger_network.node[15].core_layer 	interests[15] 	18117
scalar tiger_network.node[15].core_layer 	data[15] 	14047
scalar tiger_network.node[15].content_store 	p_hit[15] 	0.22465088038859
scalar tiger_network.node[15].content_store 	hits[15] 	4070
scalar tiger_network.node[15].content_store 	misses[15] 	14047
scalar tiger_network.node[15].content_store 	decision_yes[15] 	11
scalar tiger_network.node[15].content_store 	decision_no[15] 	14036
scalar tiger_network.node[15].content_store 	decision_ratio[15] 	0.00078308535630384
scalar tiger_network.node[16].core_layer 	interests[16] 	29206
scalar tiger_network.node[16].core_layer 	repo_load[16] 	9138
scalar tiger_network.node[16].core_layer 	data[16] 	14414
scalar tiger_network.node[16].content_store 	p_hit[16] 	0.19362459768541
scalar tiger_network.node[16].content_store 	hits[16] 	5655
scalar tiger_network.node[16].content_store 	misses[16] 	23551
scalar tiger_network.node[16].content_store 	decision_yes[16] 	27
scalar tiger_network.node[16].content_store 	decision_no[16] 	23525
scalar tiger_network.node[16].content_store 	decision_ratio[16] 	0.0011463994565217
scalar tiger_network.node[17].core_layer 	interests[17] 	35241
scalar tiger_network.node[17].core_layer 	data[17] 	29498
scalar tiger_network.node[17].content_store 	p_hit[17] 	0.16296359354161
scalar tiger_network.node[17].content_store 	hits[17] 	5743
scalar tiger_network.node[17].content_store 	misses[17] 	29498
scalar tiger_network.node[17].content_store 	decision_yes[17] 	21
scalar tiger_network.node[17].content_store 	decision_no[17] 	29477
scalar tiger_network.node[17].content_store 	decision_ratio[17] 	0.00071191267204556
scalar tiger_network.node[18].core_layer 	interests[18] 	47783
scalar tiger_network.node[18].core_layer 	repo_load[18] 	9312
scalar tiger_network.node[18].core_layer 	data[18] 	32321
scalar tiger_network.node[18].content_store 	p_hit[18] 	0.12868593432811
scalar tiger_network.node[18].content_store 	hits[18] 	6149
scalar tiger_network.node[18].content_store 	misses[18] 	41634
scalar tiger_network.node[18].content_store 	decision_yes[18] 	30
scalar tiger_network.node[18].content_store 	decision_no[18] 	41603
scalar tiger_network.node[18].content_store 	decision_ratio[18] 	0.0007205822304422
scalar tiger_network.node[19].core_layer 	interests[19] 	31948
scalar tiger_network.node[19].core_layer 	repo_load[19] 	9477
scalar tiger_network.node[19].core_layer 	data[19] 	17153
scalar tiger_network.node[19].content_store 	p_hit[19] 	0.16645799424064
scalar tiger_network.node[19].content_store 	hits[19] 	5318
scalar tiger_network.node[19].content_store 	misses[19] 	26630
scalar tiger_network.node[19].content_store 	decision_yes[19] 	24
scalar tiger_network.node[19].content_store 	decision_no[19] 	26606
scalar tiger_network.node[19].content_store 	decision_ratio[19] 	0.00090123920390537
scalar tiger_network.node[20].core_layer 	interests[20] 	25349
scalar tiger_network.node[20].core_layer 	repo_load[20] 	8770
scalar tiger_network.node[20].core_layer 	data[20] 	12021
scalar tiger_network.node[20].content_store 	p_hit[20] 	0.17980985443213
scalar tiger_network.node[20].content_store 	hits[20] 	4558
scalar tiger_network.node[20].content_store 	misses[20] 	20791
scalar tiger_network.node[20].content_store 	decision_yes[20] 	26
scalar tiger_network.node[20].content_store 	decision_no[20] 	20765
scalar tiger_network.node[20].content_store 	decision_ratio[20] 	0.0012505410995142
scalar tiger_network.node[21].core_layer 	interests[21] 	28235
scalar tiger_network.node[21].core_layer 	repo_load[21] 	9360
scalar tiger_network.node[21].core_layer 	data[21] 	13788
scalar tiger_network.node[21].content_store 	p_hit[21] 	0.18016646006729
scalar tiger_network.node[21].content_store 	hits[21] 	5087
scalar tiger_network.node[21].content_store 	misses[21] 	23148
scalar tiger_network.node[21].content_store 	decision_yes[21] 	12
scalar tiger_network.node[21].content_store 	decision_no[21] 	23136
scalar tiger_network.node[21].content_store 	decision_ratio[21] 	0.00051840331778123
scalar tiger_network.client[0] 	hdistance[0] 	2.009510648675
scalar tiger_network.client[0] 	downloads[0] 	12302
scalar tiger_network.client[0] 	avg_time[0] 	0.0004326661
scalar tiger_network.client[1] 	hdistance[1] 	2.34817370813
scalar tiger_network.client[1] 	downloads[1] 	11882
scalar tiger_network.client[1] 	avg_time[1] 	0.000784966571
scalar tiger_network.client[2] 	hdistance[2] 	2.2079873796081
scalar tiger_network.client[2] 	downloads[2] 	12044
scalar tiger_network.client[2] 	avg_time[2] 	0.000868222482
scalar tiger_network.client[3] 	hdistance[3] 	2.3526021217943
scalar tiger_network.client[3] 	downloads[3] 	11971
scalar tiger_network.client[3] 	avg_time[3] 	0.000939412759
scalar tiger_network.client[4] 	hdistance[4] 	2.3903330288182
scalar tiger_network.client[4] 	downloads[4] 	12041
scalar tiger_network.client[4] 	avg_time[4] 	0.00091874261
scalar tiger_network.client[5] 	hdistance[5] 	2.549756781268
scalar tiger_network.client[5] 	downloads[5] 	12129
scalar tiger_network.client[5] 	avg_time[5] 	0.001030006563
scalar tiger_network.client[6] 	hdistance[6] 	2.4926598656382
scalar tiger_network.client[6] 	downloads[6] 	12057
scalar tiger_network.client[6] 	avg_time[6] 	0.000734445877
scalar tiger_network.client[7] 	hdistance[7] 	2.445817882159
scalar tiger_network.client[7] 	downloads[7] 	12135
scalar tiger_network.client[7] 	avg_time[7] 	0.00074340859
scalar tiger_network.client[8] 	hdistance[8] 	2.3444277610944
scalar tiger_network.client[8] 	downloads[8] 	11988
scalar tiger_network.client[8] 	avg_time[8] 	0.000712201536
scalar tiger_network.client[9] 	hdistance[9] 	2.5744860128075
scalar tiger_network.client[9] 	downloads[9] 	11868
scalar tiger_network.client[9] 	avg_time[9] 	0.000627836278
scalar tiger_network.client[10] 	hdistance[10] 	2.5480688143026
scalar tiger_network.client[10] 	downloads[10] 	11858
scalar tiger_network.client[10] 	avg_time[10] 	0.000711775915
scalar tiger_network.client[11] 	hdistance[11] 	2.2688821752266
scalar tiger_network.client[11] 	downloads[11] 	11916
scalar tiger_network.client[11] 	avg_time[11] 	0.000343085476
scalar tiger_network.client[12] 	hdistance[12] 	2.1225697379544
scalar tiger_network.client[12] 	downloads[12] 	11830
scalar tiger_network.client[12] 	avg_time[12] 	0.00059428953
scalar tiger_network.client[13] 	hdistance[13] 	2.3520275375703
scalar tiger_network.client[13] 	downloads[13] 	11911
scalar tiger_network.client[13] 	avg_time[13] 	0.000614755814
scalar tiger_network.client[14] 	hdistance[14] 	2.6181633172221
scalar tiger_network.client[14] 	downloads[14] 	11793
scalar tiger_network.client[14] 	avg_time[14] 	0.000627252203
scalar tiger_network.client[15] 	hdistance[15] 	2.602311184482
scalar tiger_network.client[15] 	downloads[15] 	12115
scalar tiger_network.client[15] 	avg_time[15] 	0.000634439047
scalar tiger_network.client[16] 	hdistance[16] 	2.4768595041322
scalar tiger_network.client[16] 	downloads[16] 	12100
scalar tiger_network.client[16] 	avg_time[16] 	0.000644216447
scalar tiger_network.client[17] 	hdistance[17] 	2.3039207525181
scalar tiger_network.client[17] 	downloads[17] 	12013
scalar tiger_network.client[17] 	avg_time[17] 	0.000630883182
scalar tiger_network.client[18] 	hdistance[18] 	2.1071458281341
scalar tiger_network.client[18] 	downloads[18] 	12021
scalar tiger_network.client[18] 	avg_time[18] 	0.000440971782
scalar tiger_network.client[19] 	hdistance[19] 	2.1885435609191
scalar tiger_network.client[19] 	downloads[19] 	12098
scalar tiger_network.client[19] 	avg_time[19] 	0.000379646665
scalar tiger_network.client[20] 	hdistance[20] 	2.5108466278383
scalar tiger_network.client[20] 	downloads[20] 	11847
scalar tiger_network.client[20] 	avg_time[20] 	0.000642361705
scalar tiger_network.client[21] 	hdistance[21] 	2.4838154552159
scalar tiger_network.client[21] 	downloads[21] 	12203
scalar tiger_network.client[21] 	avg_time[21] 	0.000610696312
