version 2
run General-92-20160818-22:14:23-32642
attr a 0.9
attr cd lce
attr configname General
attr cr lru
attr datetime 20160818-22:14:23
attr experiment General
attr fsize 1
attr inifile hw5115/scenario_A/Edge.ini
attr iterationvars "$name=tree_4_3, $un=04, $rep=13, $scenario=Edge, $cd=lce, $cr=lru, $fsize=1, $a=0.9, $sl=spr, $ttl=1000, $variance=0.05"
attr iterationvars2 "$name=tree_4_3, $un=04, $rep=13, $scenario=Edge, $cd=lce, $cr=lru, $fsize=1, $a=0.9, $sl=spr, $ttl=1000, $variance=0.05, $repetition=0"
attr measurement "$name=tree_4_3, $un=04, $rep=13, $scenario=Edge, $cd=lce, $cr=lru, $fsize=1, $a=0.9, $sl=spr, $ttl=1000, $variance=0.05"
attr name tree_4_3
attr network networks.${name}_u${un}_r${rep}_network
attr processid 32642
attr rep 13
attr repetition 0
attr replication #0
attr resultdir results
attr runnumber 92
attr scenario Edge
attr seedset 13
attr sl spr
attr ttl 1000
attr un 04
attr variance 0.05

scalar . 	a 	0.9
scalar . 	fsize 	1
scalar . 	rep 	13
scalar . 	ttl 	1000
scalar . 	un 	04
scalar . 	variance 	0.05
scalar tree_4_3_u04_r13_network.content_distribution 	repo-0 	0
scalar tree_4_3_u04_r13_network.content_distribution 	client-0 	13
scalar tree_4_3_u04_r13_network.content_distribution 	client-1 	14
scalar tree_4_3_u04_r13_network.content_distribution 	client-2 	15
scalar tree_4_3_u04_r13_network.content_distribution 	client-3 	16
scalar tree_4_3_u04_r13_network.content_distribution 	client-4 	17
scalar tree_4_3_u04_r13_network.content_distribution 	client-5 	18
scalar tree_4_3_u04_r13_network.content_distribution 	client-6 	19
scalar tree_4_3_u04_r13_network.content_distribution 	client-7 	20
scalar tree_4_3_u04_r13_network.content_distribution 	client-8 	21
scalar tree_4_3_u04_r13_network.content_distribution 	client-9 	22
scalar tree_4_3_u04_r13_network.content_distribution 	client-10 	23
scalar tree_4_3_u04_r13_network.content_distribution 	client-11 	24
scalar tree_4_3_u04_r13_network.content_distribution 	client-12 	25
scalar tree_4_3_u04_r13_network.content_distribution 	client-13 	26
scalar tree_4_3_u04_r13_network.content_distribution 	client-14 	27
scalar tree_4_3_u04_r13_network.content_distribution 	client-15 	28
scalar tree_4_3_u04_r13_network.content_distribution 	client-16 	29
scalar tree_4_3_u04_r13_network.content_distribution 	client-17 	30
scalar tree_4_3_u04_r13_network.content_distribution 	client-18 	31
scalar tree_4_3_u04_r13_network.content_distribution 	client-19 	32
scalar tree_4_3_u04_r13_network.content_distribution 	client-20 	33
scalar tree_4_3_u04_r13_network.content_distribution 	client-21 	34
scalar tree_4_3_u04_r13_network.content_distribution 	client-22 	35
scalar tree_4_3_u04_r13_network.content_distribution 	client-23 	36
scalar tree_4_3_u04_r13_network.content_distribution 	client-24 	37
scalar tree_4_3_u04_r13_network.content_distribution 	client-25 	38
scalar tree_4_3_u04_r13_network.content_distribution 	client-26 	39
scalar tree_4_3_u04_r13_network.content_distribution 	repo-0_card 	100000
scalar tree_4_3_u04_r13_network.content_distribution 	repo-0_price 	0
scalar tree_4_3_u04_r13_network.statistics 	stabilization_time 	486.9
scalar tree_4_3_u04_r13_network.statistics 	p_hit 	0.10543918841625
scalar tree_4_3_u04_r13_network.statistics 	interests 	28631.45
scalar tree_4_3_u04_r13_network.statistics 	data 	20522.5
scalar tree_4_3_u04_r13_network.statistics 	hdistance 	3.3751213791557
scalar tree_4_3_u04_r13_network.statistics 	avg_time 	0.005062260196
scalar tree_4_3_u04_r13_network.statistics 	downloads 	324325
scalar tree_4_3_u04_r13_network.statistics 	total_cost 	0
scalar tree_4_3_u04_r13_network.statistics 	total_replicas 	100000
scalar tree_4_3_u04_r13_network.statistics 	inner_hit 	0.15640484082325
scalar tree_4_3_u04_r13_network.node[0].core_layer 	interests[0] 	273599
scalar tree_4_3_u04_r13_network.node[0].core_layer 	repo_load[0] 	273599
scalar tree_4_3_u04_r13_network.node[0].core_layer 	data[0] 	0
scalar tree_4_3_u04_r13_network.node[0].core_layer 	repo_int[0] 	273599
scalar tree_4_3_u04_r13_network.node[0].content_store 	p_hit[0] 	0
scalar tree_4_3_u04_r13_network.node[0].content_store 	hits[0] 	0
scalar tree_4_3_u04_r13_network.node[0].content_store 	misses[0] 	273599
scalar tree_4_3_u04_r13_network.node[0].content_store 	decision_yes[0] 	0
scalar tree_4_3_u04_r13_network.node[0].content_store 	decision_no[0] 	273599
scalar tree_4_3_u04_r13_network.node[0].content_store 	decision_ratio[0] 	0
scalar tree_4_3_u04_r13_network.node[1].core_layer 	interests[1] 	182399
scalar tree_4_3_u04_r13_network.node[1].core_layer 	data[1] 	182358
scalar tree_4_3_u04_r13_network.node[1].content_store 	p_hit[1] 	0
scalar tree_4_3_u04_r13_network.node[1].content_store 	hits[1] 	0
scalar tree_4_3_u04_r13_network.node[1].content_store 	misses[1] 	182399
scalar tree_4_3_u04_r13_network.node[1].content_store 	decision_yes[1] 	0
scalar tree_4_3_u04_r13_network.node[1].content_store 	decision_no[1] 	182358
scalar tree_4_3_u04_r13_network.node[1].content_store 	decision_ratio[1] 	0
scalar tree_4_3_u04_r13_network.node[2].core_layer 	interests[2] 	71082
scalar tree_4_3_u04_r13_network.node[2].core_layer 	data[2] 	71076
scalar tree_4_3_u04_r13_network.node[2].content_store 	p_hit[2] 	0
scalar tree_4_3_u04_r13_network.node[2].content_store 	hits[2] 	0
scalar tree_4_3_u04_r13_network.node[2].content_store 	misses[2] 	71082
scalar tree_4_3_u04_r13_network.node[2].content_store 	decision_yes[2] 	0
scalar tree_4_3_u04_r13_network.node[2].content_store 	decision_no[2] 	71076
scalar tree_4_3_u04_r13_network.node[2].content_store 	decision_ratio[2] 	0
scalar tree_4_3_u04_r13_network.node[3].core_layer 	interests[3] 	20164
scalar tree_4_3_u04_r13_network.node[3].core_layer 	data[3] 	20164
scalar tree_4_3_u04_r13_network.node[3].content_store 	p_hit[3] 	0
scalar tree_4_3_u04_r13_network.node[3].content_store 	hits[3] 	0
scalar tree_4_3_u04_r13_network.node[3].content_store 	misses[3] 	20164
scalar tree_4_3_u04_r13_network.node[3].content_store 	decision_yes[3] 	0
scalar tree_4_3_u04_r13_network.node[3].content_store 	decision_no[3] 	20164
scalar tree_4_3_u04_r13_network.node[3].content_store 	decision_ratio[3] 	0
scalar tree_4_3_u04_r13_network.node[4].core_layer 	interests[4] 	40260
scalar tree_4_3_u04_r13_network.node[4].core_layer 	data[4] 	40253
scalar tree_4_3_u04_r13_network.node[4].content_store 	p_hit[4] 	0
scalar tree_4_3_u04_r13_network.node[4].content_store 	hits[4] 	0
scalar tree_4_3_u04_r13_network.node[4].content_store 	misses[4] 	40260
scalar tree_4_3_u04_r13_network.node[4].content_store 	decision_yes[4] 	0
scalar tree_4_3_u04_r13_network.node[4].content_store 	decision_no[4] 	40253
scalar tree_4_3_u04_r13_network.node[4].content_store 	decision_ratio[4] 	0
scalar tree_4_3_u04_r13_network.node[5].core_layer 	interests[5] 	20343
scalar tree_4_3_u04_r13_network.node[5].core_layer 	data[5] 	20343
scalar tree_4_3_u04_r13_network.node[5].content_store 	p_hit[5] 	0
scalar tree_4_3_u04_r13_network.node[5].content_store 	hits[5] 	0
scalar tree_4_3_u04_r13_network.node[5].content_store 	misses[5] 	20343
scalar tree_4_3_u04_r13_network.node[5].content_store 	decision_yes[5] 	0
scalar tree_4_3_u04_r13_network.node[5].content_store 	decision_no[5] 	20343
scalar tree_4_3_u04_r13_network.node[5].content_store 	decision_ratio[5] 	0
scalar tree_4_3_u04_r13_network.node[6].core_layer 	interests[6] 	30472
scalar tree_4_3_u04_r13_network.node[6].core_layer 	data[6] 	30467
scalar tree_4_3_u04_r13_network.node[6].content_store 	p_hit[6] 	0
scalar tree_4_3_u04_r13_network.node[6].content_store 	hits[6] 	0
scalar tree_4_3_u04_r13_network.node[6].content_store 	misses[6] 	30472
scalar tree_4_3_u04_r13_network.node[6].content_store 	decision_yes[6] 	0
scalar tree_4_3_u04_r13_network.node[6].content_store 	decision_no[6] 	30467
scalar tree_4_3_u04_r13_network.node[6].content_store 	decision_ratio[6] 	0
scalar tree_4_3_u04_r13_network.node[7].core_layer 	interests[7] 	40636
scalar tree_4_3_u04_r13_network.node[7].core_layer 	data[7] 	40634
scalar tree_4_3_u04_r13_network.node[7].content_store 	p_hit[7] 	0
scalar tree_4_3_u04_r13_network.node[7].content_store 	hits[7] 	0
scalar tree_4_3_u04_r13_network.node[7].content_store 	misses[7] 	40636
scalar tree_4_3_u04_r13_network.node[7].content_store 	decision_yes[7] 	0
scalar tree_4_3_u04_r13_network.node[7].content_store 	decision_no[7] 	40634
scalar tree_4_3_u04_r13_network.node[7].content_store 	decision_ratio[7] 	0
scalar tree_4_3_u04_r13_network.node[8].core_layer 	interests[8] 	20179
scalar tree_4_3_u04_r13_network.node[8].core_layer 	data[8] 	20179
scalar tree_4_3_u04_r13_network.node[8].content_store 	p_hit[8] 	0
scalar tree_4_3_u04_r13_network.node[8].content_store 	hits[8] 	0
scalar tree_4_3_u04_r13_network.node[8].content_store 	misses[8] 	20179
scalar tree_4_3_u04_r13_network.node[8].content_store 	decision_yes[8] 	0
scalar tree_4_3_u04_r13_network.node[8].content_store 	decision_no[8] 	20179
scalar tree_4_3_u04_r13_network.node[8].content_store 	decision_ratio[8] 	0
scalar tree_4_3_u04_r13_network.node[9].core_layer 	interests[9] 	30648
scalar tree_4_3_u04_r13_network.node[9].core_layer 	data[9] 	30648
scalar tree_4_3_u04_r13_network.node[9].content_store 	p_hit[9] 	0
scalar tree_4_3_u04_r13_network.node[9].content_store 	hits[9] 	0
scalar tree_4_3_u04_r13_network.node[9].content_store 	misses[9] 	30648
scalar tree_4_3_u04_r13_network.node[9].content_store 	decision_yes[9] 	0
scalar tree_4_3_u04_r13_network.node[9].content_store 	decision_no[9] 	30648
scalar tree_4_3_u04_r13_network.node[9].content_store 	decision_ratio[9] 	0
scalar tree_4_3_u04_r13_network.node[10].core_layer 	interests[10] 	50704
scalar tree_4_3_u04_r13_network.node[10].core_layer 	data[10] 	50700
scalar tree_4_3_u04_r13_network.node[10].content_store 	p_hit[10] 	0
scalar tree_4_3_u04_r13_network.node[10].content_store 	hits[10] 	0
scalar tree_4_3_u04_r13_network.node[10].content_store 	misses[10] 	50704
scalar tree_4_3_u04_r13_network.node[10].content_store 	decision_yes[10] 	0
scalar tree_4_3_u04_r13_network.node[10].content_store 	decision_no[10] 	50700
scalar tree_4_3_u04_r13_network.node[10].content_store 	decision_ratio[10] 	0
scalar tree_4_3_u04_r13_network.node[11].core_layer 	interests[11] 	20255
scalar tree_4_3_u04_r13_network.node[11].core_layer 	data[11] 	20255
scalar tree_4_3_u04_r13_network.node[11].content_store 	p_hit[11] 	0
scalar tree_4_3_u04_r13_network.node[11].content_store 	hits[11] 	0
scalar tree_4_3_u04_r13_network.node[11].content_store 	misses[11] 	20255
scalar tree_4_3_u04_r13_network.node[11].content_store 	decision_yes[11] 	0
scalar tree_4_3_u04_r13_network.node[11].content_store 	decision_no[11] 	20255
scalar tree_4_3_u04_r13_network.node[11].content_store 	decision_ratio[11] 	0
scalar tree_4_3_u04_r13_network.node[12].core_layer 	interests[12] 	20164
scalar tree_4_3_u04_r13_network.node[12].core_layer 	data[12] 	20164
scalar tree_4_3_u04_r13_network.node[12].content_store 	p_hit[12] 	0
scalar tree_4_3_u04_r13_network.node[12].content_store 	hits[12] 	0
scalar tree_4_3_u04_r13_network.node[12].content_store 	misses[12] 	20164
scalar tree_4_3_u04_r13_network.node[12].content_store 	decision_yes[12] 	0
scalar tree_4_3_u04_r13_network.node[12].content_store 	decision_no[12] 	20164
scalar tree_4_3_u04_r13_network.node[12].content_store 	decision_ratio[12] 	0
scalar tree_4_3_u04_r13_network.node[13].core_layer 	interests[13] 	11921
scalar tree_4_3_u04_r13_network.node[13].core_layer 	data[13] 	10033
scalar tree_4_3_u04_r13_network.node[13].content_store 	p_hit[13] 	0.15837597516987
scalar tree_4_3_u04_r13_network.node[13].content_store 	hits[13] 	1888
scalar tree_4_3_u04_r13_network.node[13].content_store 	misses[13] 	10033
scalar tree_4_3_u04_r13_network.node[13].content_store 	decision_yes[13] 	10033
scalar tree_4_3_u04_r13_network.node[13].content_store 	decision_no[13] 	0
scalar tree_4_3_u04_r13_network.node[13].content_store 	decision_ratio[13] 	1
scalar tree_4_3_u04_r13_network.node[14].core_layer 	interests[14] 	12135
scalar tree_4_3_u04_r13_network.node[14].core_layer 	data[14] 	10185
scalar tree_4_3_u04_r13_network.node[14].content_store 	p_hit[14] 	0.16044499381953
scalar tree_4_3_u04_r13_network.node[14].content_store 	hits[14] 	1947
scalar tree_4_3_u04_r13_network.node[14].content_store 	misses[14] 	10188
scalar tree_4_3_u04_r13_network.node[14].content_store 	decision_yes[14] 	10185
scalar tree_4_3_u04_r13_network.node[14].content_store 	decision_no[14] 	0
scalar tree_4_3_u04_r13_network.node[14].content_store 	decision_ratio[14] 	1
scalar tree_4_3_u04_r13_network.node[15].core_layer 	interests[15] 	12008
scalar tree_4_3_u04_r13_network.node[15].core_layer 	data[15] 	10085
scalar tree_4_3_u04_r13_network.node[15].content_store 	p_hit[15] 	0.15997668221186
scalar tree_4_3_u04_r13_network.node[15].content_store 	hits[15] 	1921
scalar tree_4_3_u04_r13_network.node[15].content_store 	misses[15] 	10087
scalar tree_4_3_u04_r13_network.node[15].content_store 	decision_yes[15] 	10085
scalar tree_4_3_u04_r13_network.node[15].content_store 	decision_no[15] 	0
scalar tree_4_3_u04_r13_network.node[15].content_store 	decision_ratio[15] 	1
scalar tree_4_3_u04_r13_network.node[16].core_layer 	interests[16] 	11812
scalar tree_4_3_u04_r13_network.node[16].core_layer 	data[16] 	9956
scalar tree_4_3_u04_r13_network.node[16].content_store 	p_hit[16] 	0.15712834405689
scalar tree_4_3_u04_r13_network.node[16].content_store 	hits[16] 	1856
scalar tree_4_3_u04_r13_network.node[16].content_store 	misses[16] 	9956
scalar tree_4_3_u04_r13_network.node[16].content_store 	decision_yes[16] 	9956
scalar tree_4_3_u04_r13_network.node[16].content_store 	decision_no[16] 	0
scalar tree_4_3_u04_r13_network.node[16].content_store 	decision_ratio[16] 	1
scalar tree_4_3_u04_r13_network.node[17].core_layer 	interests[17] 	12037
scalar tree_4_3_u04_r13_network.node[17].core_layer 	data[17] 	10111
scalar tree_4_3_u04_r13_network.node[17].content_store 	p_hit[17] 	0.1599235689956
scalar tree_4_3_u04_r13_network.node[17].content_store 	hits[17] 	1925
scalar tree_4_3_u04_r13_network.node[17].content_store 	misses[17] 	10112
scalar tree_4_3_u04_r13_network.node[17].content_store 	decision_yes[17] 	10111
scalar tree_4_3_u04_r13_network.node[17].content_store 	decision_no[17] 	0
scalar tree_4_3_u04_r13_network.node[17].content_store 	decision_ratio[17] 	1
scalar tree_4_3_u04_r13_network.node[18].core_layer 	interests[18] 	12074
scalar tree_4_3_u04_r13_network.node[18].core_layer 	data[18] 	10232
scalar tree_4_3_u04_r13_network.node[18].content_store 	p_hit[18] 	0.15255921815471
scalar tree_4_3_u04_r13_network.node[18].content_store 	hits[18] 	1842
scalar tree_4_3_u04_r13_network.node[18].content_store 	misses[18] 	10232
scalar tree_4_3_u04_r13_network.node[18].content_store 	decision_yes[18] 	10232
scalar tree_4_3_u04_r13_network.node[18].content_store 	decision_no[18] 	0
scalar tree_4_3_u04_r13_network.node[18].content_store 	decision_ratio[18] 	1
scalar tree_4_3_u04_r13_network.node[19].core_layer 	interests[19] 	11976
scalar tree_4_3_u04_r13_network.node[19].core_layer 	data[19] 	10180
scalar tree_4_3_u04_r13_network.node[19].content_store 	p_hit[19] 	0.1497160988644
scalar tree_4_3_u04_r13_network.node[19].content_store 	hits[19] 	1793
scalar tree_4_3_u04_r13_network.node[19].content_store 	misses[19] 	10183
scalar tree_4_3_u04_r13_network.node[19].content_store 	decision_yes[19] 	10180
scalar tree_4_3_u04_r13_network.node[19].content_store 	decision_no[19] 	0
scalar tree_4_3_u04_r13_network.node[19].content_store 	decision_ratio[19] 	1
scalar tree_4_3_u04_r13_network.node[20].core_layer 	interests[20] 	12134
scalar tree_4_3_u04_r13_network.node[20].core_layer 	data[20] 	10238
scalar tree_4_3_u04_r13_network.node[20].content_store 	p_hit[20] 	0.15609032470743
scalar tree_4_3_u04_r13_network.node[20].content_store 	hits[20] 	1894
scalar tree_4_3_u04_r13_network.node[20].content_store 	misses[20] 	10240
scalar tree_4_3_u04_r13_network.node[20].content_store 	decision_yes[20] 	10238
scalar tree_4_3_u04_r13_network.node[20].content_store 	decision_no[20] 	0
scalar tree_4_3_u04_r13_network.node[20].content_store 	decision_ratio[20] 	1
scalar tree_4_3_u04_r13_network.node[21].core_layer 	interests[21] 	11932
scalar tree_4_3_u04_r13_network.node[21].core_layer 	data[21] 	10053
scalar tree_4_3_u04_r13_network.node[21].content_store 	p_hit[21] 	0.15747569560845
scalar tree_4_3_u04_r13_network.node[21].content_store 	hits[21] 	1879
scalar tree_4_3_u04_r13_network.node[21].content_store 	misses[21] 	10053
scalar tree_4_3_u04_r13_network.node[21].content_store 	decision_yes[21] 	10053
scalar tree_4_3_u04_r13_network.node[21].content_store 	decision_no[21] 	0
scalar tree_4_3_u04_r13_network.node[21].content_store 	decision_ratio[21] 	1
scalar tree_4_3_u04_r13_network.node[22].core_layer 	interests[22] 	12069
scalar tree_4_3_u04_r13_network.node[22].core_layer 	data[22] 	10106
scalar tree_4_3_u04_r13_network.node[22].content_store 	p_hit[22] 	0.16256524981357
scalar tree_4_3_u04_r13_network.node[22].content_store 	hits[22] 	1962
scalar tree_4_3_u04_r13_network.node[22].content_store 	misses[22] 	10107
scalar tree_4_3_u04_r13_network.node[22].content_store 	decision_yes[22] 	10106
scalar tree_4_3_u04_r13_network.node[22].content_store 	decision_no[22] 	0
scalar tree_4_3_u04_r13_network.node[22].content_store 	decision_ratio[22] 	1
scalar tree_4_3_u04_r13_network.node[23].core_layer 	interests[23] 	12147
scalar tree_4_3_u04_r13_network.node[23].core_layer 	data[23] 	10245
scalar tree_4_3_u04_r13_network.node[23].content_store 	p_hit[23] 	0.15658187206718
scalar tree_4_3_u04_r13_network.node[23].content_store 	hits[23] 	1902
scalar tree_4_3_u04_r13_network.node[23].content_store 	misses[23] 	10245
scalar tree_4_3_u04_r13_network.node[23].content_store 	decision_yes[23] 	10245
scalar tree_4_3_u04_r13_network.node[23].content_store 	decision_no[23] 	0
scalar tree_4_3_u04_r13_network.node[23].content_store 	decision_ratio[23] 	1
scalar tree_4_3_u04_r13_network.node[24].core_layer 	interests[24] 	12095
scalar tree_4_3_u04_r13_network.node[24].core_layer 	data[24] 	10197
scalar tree_4_3_u04_r13_network.node[24].content_store 	p_hit[24] 	0.15692434890451
scalar tree_4_3_u04_r13_network.node[24].content_store 	hits[24] 	1898
scalar tree_4_3_u04_r13_network.node[24].content_store 	misses[24] 	10197
scalar tree_4_3_u04_r13_network.node[24].content_store 	decision_yes[24] 	10197
scalar tree_4_3_u04_r13_network.node[24].content_store 	decision_no[24] 	0
scalar tree_4_3_u04_r13_network.node[24].content_store 	decision_ratio[24] 	1
scalar tree_4_3_u04_r13_network.node[25].core_layer 	interests[25] 	11952
scalar tree_4_3_u04_r13_network.node[25].core_layer 	data[25] 	10088
scalar tree_4_3_u04_r13_network.node[25].content_store 	p_hit[25] 	0.15570615796519
scalar tree_4_3_u04_r13_network.node[25].content_store 	hits[25] 	1861
scalar tree_4_3_u04_r13_network.node[25].content_store 	misses[25] 	10091
scalar tree_4_3_u04_r13_network.node[25].content_store 	decision_yes[25] 	10088
scalar tree_4_3_u04_r13_network.node[25].content_store 	decision_no[25] 	0
scalar tree_4_3_u04_r13_network.node[25].content_store 	decision_ratio[25] 	1
scalar tree_4_3_u04_r13_network.node[26].core_layer 	interests[26] 	11984
scalar tree_4_3_u04_r13_network.node[26].core_layer 	data[26] 	10157
scalar tree_4_3_u04_r13_network.node[26].content_store 	p_hit[26] 	0.15228638184246
scalar tree_4_3_u04_r13_network.node[26].content_store 	hits[26] 	1825
scalar tree_4_3_u04_r13_network.node[26].content_store 	misses[26] 	10159
scalar tree_4_3_u04_r13_network.node[26].content_store 	decision_yes[26] 	10157
scalar tree_4_3_u04_r13_network.node[26].content_store 	decision_no[26] 	0
scalar tree_4_3_u04_r13_network.node[26].content_store 	decision_ratio[26] 	1
scalar tree_4_3_u04_r13_network.node[27].core_layer 	interests[27] 	11969
scalar tree_4_3_u04_r13_network.node[27].core_layer 	data[27] 	10022
scalar tree_4_3_u04_r13_network.node[27].content_store 	p_hit[27] 	0.16258668226251
scalar tree_4_3_u04_r13_network.node[27].content_store 	hits[27] 	1946
scalar tree_4_3_u04_r13_network.node[27].content_store 	misses[27] 	10023
scalar tree_4_3_u04_r13_network.node[27].content_store 	decision_yes[27] 	10022
scalar tree_4_3_u04_r13_network.node[27].content_store 	decision_no[27] 	0
scalar tree_4_3_u04_r13_network.node[27].content_store 	decision_ratio[27] 	1
scalar tree_4_3_u04_r13_network.node[28].core_layer 	interests[28] 	11971
scalar tree_4_3_u04_r13_network.node[28].core_layer 	data[28] 	10151
scalar tree_4_3_u04_r13_network.node[28].content_store 	p_hit[28] 	0.15195054715563
scalar tree_4_3_u04_r13_network.node[28].content_store 	hits[28] 	1819
scalar tree_4_3_u04_r13_network.node[28].content_store 	misses[28] 	10152
scalar tree_4_3_u04_r13_network.node[28].content_store 	decision_yes[28] 	10151
scalar tree_4_3_u04_r13_network.node[28].content_store 	decision_no[28] 	0
scalar tree_4_3_u04_r13_network.node[28].content_store 	decision_ratio[28] 	1
scalar tree_4_3_u04_r13_network.node[29].core_layer 	interests[29] 	12065
scalar tree_4_3_u04_r13_network.node[29].core_layer 	data[29] 	10276
scalar tree_4_3_u04_r13_network.node[29].content_store 	p_hit[29] 	0.14819726481558
scalar tree_4_3_u04_r13_network.node[29].content_store 	hits[29] 	1788
scalar tree_4_3_u04_r13_network.node[29].content_store 	misses[29] 	10277
scalar tree_4_3_u04_r13_network.node[29].content_store 	decision_yes[29] 	10276
scalar tree_4_3_u04_r13_network.node[29].content_store 	decision_no[29] 	0
scalar tree_4_3_u04_r13_network.node[29].content_store 	decision_ratio[29] 	1
scalar tree_4_3_u04_r13_network.node[30].core_layer 	interests[30] 	12113
scalar tree_4_3_u04_r13_network.node[30].core_layer 	data[30] 	10221
scalar tree_4_3_u04_r13_network.node[30].content_store 	p_hit[30] 	0.15619582266986
scalar tree_4_3_u04_r13_network.node[30].content_store 	hits[30] 	1892
scalar tree_4_3_u04_r13_network.node[30].content_store 	misses[30] 	10221
scalar tree_4_3_u04_r13_network.node[30].content_store 	decision_yes[30] 	10221
scalar tree_4_3_u04_r13_network.node[30].content_store 	decision_no[30] 	0
scalar tree_4_3_u04_r13_network.node[30].content_store 	decision_ratio[30] 	1
scalar tree_4_3_u04_r13_network.node[31].core_layer 	interests[31] 	11985
scalar tree_4_3_u04_r13_network.node[31].core_layer 	data[31] 	10102
scalar tree_4_3_u04_r13_network.node[31].content_store 	p_hit[31] 	0.15702962035878
scalar tree_4_3_u04_r13_network.node[31].content_store 	hits[31] 	1882
scalar tree_4_3_u04_r13_network.node[31].content_store 	misses[31] 	10103
scalar tree_4_3_u04_r13_network.node[31].content_store 	decision_yes[31] 	10102
scalar tree_4_3_u04_r13_network.node[31].content_store 	decision_no[31] 	0
scalar tree_4_3_u04_r13_network.node[31].content_store 	decision_ratio[31] 	1
scalar tree_4_3_u04_r13_network.node[32].core_layer 	interests[32] 	11997
scalar tree_4_3_u04_r13_network.node[32].core_layer 	data[32] 	10102
scalar tree_4_3_u04_r13_network.node[32].content_store 	p_hit[32] 	0.15770609318996
scalar tree_4_3_u04_r13_network.node[32].content_store 	hits[32] 	1892
scalar tree_4_3_u04_r13_network.node[32].content_store 	misses[32] 	10105
scalar tree_4_3_u04_r13_network.node[32].content_store 	decision_yes[32] 	10102
scalar tree_4_3_u04_r13_network.node[32].content_store 	decision_no[32] 	0
scalar tree_4_3_u04_r13_network.node[32].content_store 	decision_ratio[32] 	1
scalar tree_4_3_u04_r13_network.node[33].core_layer 	interests[33] 	12086
scalar tree_4_3_u04_r13_network.node[33].core_layer 	data[33] 	10212
scalar tree_4_3_u04_r13_network.node[33].content_store 	p_hit[33] 	0.1550554360417
scalar tree_4_3_u04_r13_network.node[33].content_store 	hits[33] 	1874
scalar tree_4_3_u04_r13_network.node[33].content_store 	misses[33] 	10212
scalar tree_4_3_u04_r13_network.node[33].content_store 	decision_yes[33] 	10212
scalar tree_4_3_u04_r13_network.node[33].content_store 	decision_no[33] 	0
scalar tree_4_3_u04_r13_network.node[33].content_store 	decision_ratio[33] 	1
scalar tree_4_3_u04_r13_network.node[34].core_layer 	interests[34] 	11980
scalar tree_4_3_u04_r13_network.node[34].core_layer 	data[34] 	10103
scalar tree_4_3_u04_r13_network.node[34].content_store 	p_hit[34] 	0.15659432387312
scalar tree_4_3_u04_r13_network.node[34].content_store 	hits[34] 	1876
scalar tree_4_3_u04_r13_network.node[34].content_store 	misses[34] 	10104
scalar tree_4_3_u04_r13_network.node[34].content_store 	decision_yes[34] 	10103
scalar tree_4_3_u04_r13_network.node[34].content_store 	decision_no[34] 	0
scalar tree_4_3_u04_r13_network.node[34].content_store 	decision_ratio[34] 	1
scalar tree_4_3_u04_r13_network.node[35].core_layer 	interests[35] 	11923
scalar tree_4_3_u04_r13_network.node[35].core_layer 	data[35] 	10044
scalar tree_4_3_u04_r13_network.node[35].content_store 	p_hit[35] 	0.15759456512623
scalar tree_4_3_u04_r13_network.node[35].content_store 	hits[35] 	1879
scalar tree_4_3_u04_r13_network.node[35].content_store 	misses[35] 	10044
scalar tree_4_3_u04_r13_network.node[35].content_store 	decision_yes[35] 	10044
scalar tree_4_3_u04_r13_network.node[35].content_store 	decision_no[35] 	0
scalar tree_4_3_u04_r13_network.node[35].content_store 	decision_ratio[35] 	1
scalar tree_4_3_u04_r13_network.node[36].core_layer 	interests[36] 	12063
scalar tree_4_3_u04_r13_network.node[36].core_layer 	data[36] 	10211
scalar tree_4_3_u04_r13_network.node[36].content_store 	p_hit[36] 	0.15327862057531
scalar tree_4_3_u04_r13_network.node[36].content_store 	hits[36] 	1849
scalar tree_4_3_u04_r13_network.node[36].content_store 	misses[36] 	10214
scalar tree_4_3_u04_r13_network.node[36].content_store 	decision_yes[36] 	10211
scalar tree_4_3_u04_r13_network.node[36].content_store 	decision_no[36] 	0
scalar tree_4_3_u04_r13_network.node[36].content_store 	decision_ratio[36] 	1
scalar tree_4_3_u04_r13_network.node[37].core_layer 	interests[37] 	12064
scalar tree_4_3_u04_r13_network.node[37].core_layer 	data[37] 	10185
scalar tree_4_3_u04_r13_network.node[37].content_store 	p_hit[37] 	0.15575265251989
scalar tree_4_3_u04_r13_network.node[37].content_store 	hits[37] 	1879
scalar tree_4_3_u04_r13_network.node[37].content_store 	misses[37] 	10185
scalar tree_4_3_u04_r13_network.node[37].content_store 	decision_yes[37] 	10185
scalar tree_4_3_u04_r13_network.node[37].content_store 	decision_no[37] 	0
scalar tree_4_3_u04_r13_network.node[37].content_store 	decision_ratio[37] 	1
scalar tree_4_3_u04_r13_network.node[38].core_layer 	interests[38] 	11903
scalar tree_4_3_u04_r13_network.node[38].core_layer 	data[38] 	10077
scalar tree_4_3_u04_r13_network.node[38].content_store 	p_hit[38] 	0.15340670419222
scalar tree_4_3_u04_r13_network.node[38].content_store 	hits[38] 	1826
scalar tree_4_3_u04_r13_network.node[38].content_store 	misses[38] 	10077
scalar tree_4_3_u04_r13_network.node[38].content_store 	decision_yes[38] 	10077
scalar tree_4_3_u04_r13_network.node[38].content_store 	decision_no[38] 	0
scalar tree_4_3_u04_r13_network.node[38].content_store 	decision_ratio[38] 	1
scalar tree_4_3_u04_r13_network.node[39].core_layer 	interests[39] 	11958
scalar tree_4_3_u04_r13_network.node[39].core_layer 	data[39] 	10087
scalar tree_4_3_u04_r13_network.node[39].content_store 	p_hit[39] 	0.15646429168757
scalar tree_4_3_u04_r13_network.node[39].content_store 	hits[39] 	1871
scalar tree_4_3_u04_r13_network.node[39].content_store 	misses[39] 	10087
scalar tree_4_3_u04_r13_network.node[39].content_store 	decision_yes[39] 	10087
scalar tree_4_3_u04_r13_network.node[39].content_store 	decision_no[39] 	0
scalar tree_4_3_u04_r13_network.node[39].content_store 	decision_ratio[39] 	1
scalar tree_4_3_u04_r13_network.client[13] 	hdistance[13] 	3.3664960993205
scalar tree_4_3_u04_r13_network.client[13] 	downloads[13] 	11921
scalar tree_4_3_u04_r13_network.client[13] 	avg_time[13] 	0.005048793424
scalar tree_4_3_u04_r13_network.client[14] 	hdistance[14] 	3.3580613254204
scalar tree_4_3_u04_r13_network.client[14] 	downloads[14] 	12132
scalar tree_4_3_u04_r13_network.client[14] 	avg_time[14] 	0.005036351043
scalar tree_4_3_u04_r13_network.client[15] 	hdistance[15] 	3.35998667333
scalar tree_4_3_u04_r13_network.client[15] 	downloads[15] 	12006
scalar tree_4_3_u04_r13_network.client[15] 	avg_time[15] 	0.005039603426
scalar tree_4_3_u04_r13_network.client[16] 	hdistance[16] 	3.3714866237724
scalar tree_4_3_u04_r13_network.client[16] 	downloads[16] 	11812
scalar tree_4_3_u04_r13_network.client[16] 	avg_time[16] 	0.005056604347
scalar tree_4_3_u04_r13_network.client[17] 	hdistance[17] 	3.3602525756065
scalar tree_4_3_u04_r13_network.client[17] 	downloads[17] 	12036
scalar tree_4_3_u04_r13_network.client[17] 	avg_time[17] 	0.005039798311
scalar tree_4_3_u04_r13_network.client[18] 	hdistance[18] 	3.3897631273811
scalar tree_4_3_u04_r13_network.client[18] 	downloads[18] 	12074
scalar tree_4_3_u04_r13_network.client[18] 	avg_time[18] 	0.005084204046
scalar tree_4_3_u04_r13_network.client[19] 	hdistance[19] 	3.4009855508227
scalar tree_4_3_u04_r13_network.client[19] 	downloads[19] 	11973
scalar tree_4_3_u04_r13_network.client[19] 	avg_time[19] 	0.005100397569
scalar tree_4_3_u04_r13_network.client[20] 	hdistance[20] 	3.3755357731619
scalar tree_4_3_u04_r13_network.client[20] 	downloads[20] 	12132
scalar tree_4_3_u04_r13_network.client[20] 	avg_time[20] 	0.005063273703
scalar tree_4_3_u04_r13_network.client[21] 	hdistance[21] 	3.3700972175662
scalar tree_4_3_u04_r13_network.client[21] 	downloads[21] 	11932
scalar tree_4_3_u04_r13_network.client[21] 	avg_time[21] 	0.005054422319
scalar tree_4_3_u04_r13_network.client[22] 	hdistance[22] 	3.3496851176666
scalar tree_4_3_u04_r13_network.client[22] 	downloads[22] 	12068
scalar tree_4_3_u04_r13_network.client[22] 	avg_time[22] 	0.005024362843
scalar tree_4_3_u04_r13_network.client[23] 	hdistance[23] 	3.3736725117313
scalar tree_4_3_u04_r13_network.client[23] 	downloads[23] 	12147
scalar tree_4_3_u04_r13_network.client[23] 	avg_time[23] 	0.00506017646
scalar tree_4_3_u04_r13_network.client[24] 	hdistance[24] 	3.372302604382
scalar tree_4_3_u04_r13_network.client[24] 	downloads[24] 	12095
scalar tree_4_3_u04_r13_network.client[24] 	avg_time[24] 	0.005058427344
scalar tree_4_3_u04_r13_network.client[25] 	hdistance[25] 	3.3770189974056
scalar tree_4_3_u04_r13_network.client[25] 	downloads[25] 	11949
scalar tree_4_3_u04_r13_network.client[25] 	avg_time[25] 	0.005064730022
scalar tree_4_3_u04_r13_network.client[26] 	hdistance[26] 	3.3907527958605
scalar tree_4_3_u04_r13_network.client[26] 	downloads[26] 	11982
scalar tree_4_3_u04_r13_network.client[26] 	avg_time[26] 	0.005085829626
scalar tree_4_3_u04_r13_network.client[27] 	hdistance[27] 	3.3495989304813
scalar tree_4_3_u04_r13_network.client[27] 	downloads[27] 	11968
scalar tree_4_3_u04_r13_network.client[27] 	avg_time[27] 	0.005024078351
scalar tree_4_3_u04_r13_network.client[28] 	hdistance[28] 	3.3921470342523
scalar tree_4_3_u04_r13_network.client[28] 	downloads[28] 	11970
scalar tree_4_3_u04_r13_network.client[28] 	avg_time[28] 	0.005087958987
scalar tree_4_3_u04_r13_network.client[29] 	hdistance[29] 	3.4071618037135
scalar tree_4_3_u04_r13_network.client[29] 	downloads[29] 	12064
scalar tree_4_3_u04_r13_network.client[29] 	avg_time[29] 	0.005110465478
scalar tree_4_3_u04_r13_network.client[30] 	hdistance[30] 	3.3752167093206
scalar tree_4_3_u04_r13_network.client[30] 	downloads[30] 	12113
scalar tree_4_3_u04_r13_network.client[30] 	avg_time[30] 	0.00506249366
scalar tree_4_3_u04_r13_network.client[31] 	hdistance[31] 	3.371829105474
scalar tree_4_3_u04_r13_network.client[31] 	downloads[31] 	11984
scalar tree_4_3_u04_r13_network.client[31] 	avg_time[31] 	0.005057581473
scalar tree_4_3_u04_r13_network.client[32] 	hdistance[32] 	3.3690178422545
scalar tree_4_3_u04_r13_network.client[32] 	downloads[32] 	11994
scalar tree_4_3_u04_r13_network.client[32] 	avg_time[32] 	0.005052225622
scalar tree_4_3_u04_r13_network.client[33] 	hdistance[33] 	3.3797782558332
scalar tree_4_3_u04_r13_network.client[33] 	downloads[33] 	12086
scalar tree_4_3_u04_r13_network.client[33] 	avg_time[33] 	0.005069664362
scalar tree_4_3_u04_r13_network.client[34] 	hdistance[34] 	3.3735704148927
scalar tree_4_3_u04_r13_network.client[34] 	downloads[34] 	11979
scalar tree_4_3_u04_r13_network.client[34] 	avg_time[34] 	0.005059679901
scalar tree_4_3_u04_r13_network.client[35] 	hdistance[35] 	3.3696217394951
scalar tree_4_3_u04_r13_network.client[35] 	downloads[35] 	11923
scalar tree_4_3_u04_r13_network.client[35] 	avg_time[35] 	0.005054429626
scalar tree_4_3_u04_r13_network.client[36] 	hdistance[36] 	3.3867330016584
scalar tree_4_3_u04_r13_network.client[36] 	downloads[36] 	12060
scalar tree_4_3_u04_r13_network.client[36] 	avg_time[36] 	0.005079476333
scalar tree_4_3_u04_r13_network.client[37] 	hdistance[37] 	3.3769893899204
scalar tree_4_3_u04_r13_network.client[37] 	downloads[37] 	12064
scalar tree_4_3_u04_r13_network.client[37] 	avg_time[37] 	0.005065228981
scalar tree_4_3_u04_r13_network.client[38] 	hdistance[38] 	3.3863731832311
scalar tree_4_3_u04_r13_network.client[38] 	downloads[38] 	11903
scalar tree_4_3_u04_r13_network.client[38] 	avg_time[38] 	0.005079556786
scalar tree_4_3_u04_r13_network.client[39] 	hdistance[39] 	3.3741428332497
scalar tree_4_3_u04_r13_network.client[39] 	downloads[39] 	11958
scalar tree_4_3_u04_r13_network.client[39] 	avg_time[39] 	0.005061211273
