version 2
run General-69-20160826-11:57:29-19693
attr D ffc0.2
attr F nrr
attr R lru
attr a 0.9
attr configname General
attr datetime 20160826-11:57:29
attr experiment General
attr inifile hw5115/scenario_C/omnetp.ini
attr iterationvars "$net=tiger, $rep=8, $a=0.9, $F=nrr, $D=ffc0.2, $R=lru, $window=60, $variance=0.05, $mytime=600"
attr iterationvars2 "$net=tiger, $rep=8, $a=0.9, $F=nrr, $D=ffc0.2, $R=lru, $window=60, $variance=0.05, $mytime=600, $repetition=0"
attr measurement "$net=tiger, $rep=8, $a=0.9, $F=nrr, $D=ffc0.2, $R=lru, $window=60, $variance=0.05, $mytime=600"
attr mytime 600
attr net tiger
attr network networks.${net=tiger}_network
attr processid 19693
attr rep 8
attr repetition 0
attr replication #0
attr resultdir results
attr runnumber 69
attr seedset 8
attr variance 0.05
attr window 60

scalar . 	a 	0.9
scalar . 	mytime 	600
scalar . 	rep 	8
scalar . 	variance 	0.05
scalar . 	window 	60
scalar tiger_network.content_distribution 	repo-0 	4
scalar tiger_network.content_distribution 	repo-1 	15
scalar tiger_network.content_distribution 	repo-2 	12
scalar tiger_network.content_distribution 	repo-3 	18
scalar tiger_network.content_distribution 	repo-4 	8
scalar tiger_network.content_distribution 	repo-5 	20
scalar tiger_network.content_distribution 	repo-6 	5
scalar tiger_network.content_distribution 	repo-7 	1
scalar tiger_network.content_distribution 	repo-8 	7
scalar tiger_network.content_distribution 	repo-9 	3
scalar tiger_network.content_distribution 	repo-10 	13
scalar tiger_network.content_distribution 	repo-11 	16
scalar tiger_network.content_distribution 	repo-12 	9
scalar tiger_network.content_distribution 	repo-13 	21
scalar tiger_network.content_distribution 	repo-14 	0
scalar tiger_network.content_distribution 	repo-15 	10
scalar tiger_network.content_distribution 	client-0 	21
scalar tiger_network.content_distribution 	client-1 	9
scalar tiger_network.content_distribution 	client-2 	6
scalar tiger_network.content_distribution 	client-3 	2
scalar tiger_network.content_distribution 	client-4 	14
scalar tiger_network.content_distribution 	client-5 	8
scalar tiger_network.content_distribution 	client-6 	17
scalar tiger_network.content_distribution 	client-7 	0
scalar tiger_network.content_distribution 	client-8 	19
scalar tiger_network.content_distribution 	client-9 	10
scalar tiger_network.content_distribution 	client-10 	13
scalar tiger_network.content_distribution 	client-11 	1
scalar tiger_network.content_distribution 	client-12 	3
scalar tiger_network.content_distribution 	client-13 	18
scalar tiger_network.content_distribution 	client-14 	15
scalar tiger_network.content_distribution 	client-15 	16
scalar tiger_network.content_distribution 	client-16 	12
scalar tiger_network.content_distribution 	client-17 	11
scalar tiger_network.content_distribution 	client-18 	7
scalar tiger_network.content_distribution 	client-19 	4
scalar tiger_network.content_distribution 	client-20 	5
scalar tiger_network.content_distribution 	client-21 	20
scalar tiger_network.content_distribution 	repo-0_card 	6202
scalar tiger_network.content_distribution 	repo-0_price 	0
scalar tiger_network.content_distribution 	repo-1_card 	6316
scalar tiger_network.content_distribution 	repo-1_price 	0
scalar tiger_network.content_distribution 	repo-2_card 	6112
scalar tiger_network.content_distribution 	repo-2_price 	0
scalar tiger_network.content_distribution 	repo-3_card 	6353
scalar tiger_network.content_distribution 	repo-3_price 	0
scalar tiger_network.content_distribution 	repo-4_card 	6339
scalar tiger_network.content_distribution 	repo-4_price 	0
scalar tiger_network.content_distribution 	repo-5_card 	6224
scalar tiger_network.content_distribution 	repo-5_price 	0
scalar tiger_network.content_distribution 	repo-6_card 	6196
scalar tiger_network.content_distribution 	repo-6_price 	0
scalar tiger_network.content_distribution 	repo-7_card 	6310
scalar tiger_network.content_distribution 	repo-7_price 	0
scalar tiger_network.content_distribution 	repo-8_card 	6324
scalar tiger_network.content_distribution 	repo-8_price 	0
scalar tiger_network.content_distribution 	repo-9_card 	6229
scalar tiger_network.content_distribution 	repo-9_price 	0
scalar tiger_network.content_distribution 	repo-10_card 	6185
scalar tiger_network.content_distribution 	repo-10_price 	0
scalar tiger_network.content_distribution 	repo-11_card 	6137
scalar tiger_network.content_distribution 	repo-11_price 	0
scalar tiger_network.content_distribution 	repo-12_card 	6314
scalar tiger_network.content_distribution 	repo-12_price 	0
scalar tiger_network.content_distribution 	repo-13_card 	6325
scalar tiger_network.content_distribution 	repo-13_price 	0
scalar tiger_network.content_distribution 	repo-14_card 	6117
scalar tiger_network.content_distribution 	repo-14_price 	0
scalar tiger_network.content_distribution 	repo-15_card 	6317
scalar tiger_network.content_distribution 	repo-15_price 	0
scalar tiger_network.statistics 	stabilization_time 	1386
scalar tiger_network.statistics 	p_hit 	0.17195988796543
scalar tiger_network.statistics 	interests 	33350.727272727
scalar tiger_network.statistics 	data 	21369.045454545
scalar tiger_network.statistics 	hdistance 	2.3488208277483
scalar tiger_network.statistics 	avg_time 	0.000698349467
scalar tiger_network.statistics 	downloads 	263597
scalar tiger_network.statistics 	total_cost 	0
scalar tiger_network.statistics 	total_replicas 	100000
scalar tiger_network.statistics 	inner_hit 	0.43450418631472
scalar tiger_network.node[0].core_layer 	interests[0] 	38213
scalar tiger_network.node[0].core_layer 	repo_load[0] 	9681
scalar tiger_network.node[0].core_layer 	data[0] 	23155
scalar tiger_network.node[0].core_layer 	repo_int[0] 	149063
scalar tiger_network.node[0].content_store 	p_hit[0] 	0.14071127626724
scalar tiger_network.node[0].content_store 	hits[0] 	5377
scalar tiger_network.node[0].content_store 	misses[0] 	32836
scalar tiger_network.node[0].content_store 	decision_yes[0] 	109
scalar tiger_network.node[0].content_store 	decision_no[0] 	32727
scalar tiger_network.node[0].content_store 	decision_ratio[0] 	0.0033195273480326
scalar tiger_network.node[1].core_layer 	interests[1] 	51165
scalar tiger_network.node[1].core_layer 	repo_load[1] 	8999
scalar tiger_network.node[1].core_layer 	data[1] 	36969
scalar tiger_network.node[1].content_store 	p_hit[1] 	0.10157334115118
scalar tiger_network.node[1].content_store 	hits[1] 	5197
scalar tiger_network.node[1].content_store 	misses[1] 	45968
scalar tiger_network.node[1].content_store 	decision_yes[1] 	85
scalar tiger_network.node[1].content_store 	decision_no[1] 	45883
scalar tiger_network.node[1].content_store 	decision_ratio[1] 	0.0018491124260355
scalar tiger_network.node[2].core_layer 	interests[2] 	55244
scalar tiger_network.node[2].core_layer 	data[2] 	49693
scalar tiger_network.node[2].content_store 	p_hit[2] 	0.10046339874013
scalar tiger_network.node[2].content_store 	hits[2] 	5550
scalar tiger_network.node[2].content_store 	misses[2] 	49694
scalar tiger_network.node[2].content_store 	decision_yes[2] 	79
scalar tiger_network.node[2].content_store 	decision_no[2] 	49614
scalar tiger_network.node[2].content_store 	decision_ratio[2] 	0.0015897611333588
scalar tiger_network.node[3].core_layer 	interests[3] 	50488
scalar tiger_network.node[3].core_layer 	repo_load[3] 	9957
scalar tiger_network.node[3].core_layer 	data[3] 	35374
scalar tiger_network.node[3].content_store 	p_hit[3] 	0.10214308350499
scalar tiger_network.node[3].content_store 	hits[3] 	5157
scalar tiger_network.node[3].content_store 	misses[3] 	45331
scalar tiger_network.node[3].content_store 	decision_yes[3] 	105
scalar tiger_network.node[3].content_store 	decision_no[3] 	45226
scalar tiger_network.node[3].content_store 	decision_ratio[3] 	0.00231629569169
scalar tiger_network.node[4].core_layer 	interests[4] 	37118
scalar tiger_network.node[4].core_layer 	repo_load[4] 	9631
scalar tiger_network.node[4].core_layer 	data[4] 	22388
scalar tiger_network.node[4].content_store 	p_hit[4] 	0.13737270327065
scalar tiger_network.node[4].content_store 	hits[4] 	5099
scalar tiger_network.node[4].content_store 	misses[4] 	32019
scalar tiger_network.node[4].content_store 	decision_yes[4] 	99
scalar tiger_network.node[4].content_store 	decision_no[4] 	31920
scalar tiger_network.node[4].content_store 	decision_ratio[4] 	0.003091914175958
scalar tiger_network.node[5].core_layer 	interests[5] 	25227
scalar tiger_network.node[5].core_layer 	repo_load[5] 	8691
scalar tiger_network.node[5].core_layer 	data[5] 	11303
scalar tiger_network.node[5].content_store 	p_hit[5] 	0.20743647679074
scalar tiger_network.node[5].content_store 	hits[5] 	5233
scalar tiger_network.node[5].content_store 	misses[5] 	19994
scalar tiger_network.node[5].content_store 	decision_yes[5] 	84
scalar tiger_network.node[5].content_store 	decision_no[5] 	19910
scalar tiger_network.node[5].content_store 	decision_ratio[5] 	0.0042012603781134
scalar tiger_network.node[6].core_layer 	interests[6] 	29700
scalar tiger_network.node[6].core_layer 	data[6] 	24359
scalar tiger_network.node[6].content_store 	p_hit[6] 	0.17983164983165
scalar tiger_network.node[6].content_store 	hits[6] 	5341
scalar tiger_network.node[6].content_store 	misses[6] 	24359
scalar tiger_network.node[6].content_store 	decision_yes[6] 	49
scalar tiger_network.node[6].content_store 	decision_no[6] 	24310
scalar tiger_network.node[6].content_store 	decision_ratio[6] 	0.0020115768299191
scalar tiger_network.node[7].core_layer 	interests[7] 	41507
scalar tiger_network.node[7].core_layer 	repo_load[7] 	9733
scalar tiger_network.node[7].core_layer 	data[7] 	26591
scalar tiger_network.node[7].content_store 	p_hit[7] 	0.12487050377045
scalar tiger_network.node[7].content_store 	hits[7] 	5183
scalar tiger_network.node[7].content_store 	misses[7] 	36324
scalar tiger_network.node[7].content_store 	decision_yes[7] 	87
scalar tiger_network.node[7].content_store 	decision_no[7] 	36237
scalar tiger_network.node[7].content_store 	decision_ratio[7] 	0.002395110670631
scalar tiger_network.node[8].core_layer 	interests[8] 	51083
scalar tiger_network.node[8].core_layer 	repo_load[8] 	9688
scalar tiger_network.node[8].core_layer 	data[8] 	35884
scalar tiger_network.node[8].content_store 	p_hit[8] 	0.10788324883033
scalar tiger_network.node[8].content_store 	hits[8] 	5511
scalar tiger_network.node[8].content_store 	misses[8] 	45572
scalar tiger_network.node[8].content_store 	decision_yes[8] 	106
scalar tiger_network.node[8].content_store 	decision_no[8] 	45466
scalar tiger_network.node[8].content_store 	decision_ratio[8] 	0.0023259896427631
scalar tiger_network.node[9].core_layer 	interests[9] 	24588
scalar tiger_network.node[9].core_layer 	repo_load[9] 	9304
scalar tiger_network.node[9].core_layer 	data[9] 	10540
scalar tiger_network.node[9].content_store 	p_hit[9] 	0.19293964535546
scalar tiger_network.node[9].content_store 	hits[9] 	4744
scalar tiger_network.node[9].content_store 	misses[9] 	19844
scalar tiger_network.node[9].content_store 	decision_yes[9] 	91
scalar tiger_network.node[9].content_store 	decision_no[9] 	19753
scalar tiger_network.node[9].content_store 	decision_ratio[9] 	0.0045857689981858
scalar tiger_network.node[10].core_layer 	interests[10] 	28603
scalar tiger_network.node[10].core_layer 	repo_load[10] 	9275
scalar tiger_network.node[10].core_layer 	data[10] 	14246
scalar tiger_network.node[10].content_store 	p_hit[10] 	0.17767367059399
scalar tiger_network.node[10].content_store 	hits[10] 	5082
scalar tiger_network.node[10].content_store 	misses[10] 	23521
scalar tiger_network.node[10].content_store 	decision_yes[10] 	81
scalar tiger_network.node[10].content_store 	decision_no[10] 	23440
scalar tiger_network.node[10].content_store 	decision_ratio[10] 	0.0034437311338804
scalar tiger_network.node[11].core_layer 	interests[11] 	20513
scalar tiger_network.node[11].core_layer 	data[11] 	15348
scalar tiger_network.node[11].content_store 	p_hit[11] 	0.25179154682397
scalar tiger_network.node[11].content_store 	hits[11] 	5165
scalar tiger_network.node[11].content_store 	misses[11] 	15348
scalar tiger_network.node[11].content_store 	decision_yes[11] 	51
scalar tiger_network.node[11].content_store 	decision_no[11] 	15297
scalar tiger_network.node[11].content_store 	decision_ratio[11] 	0.003322908522283
scalar tiger_network.node[12].core_layer 	interests[12] 	34870
scalar tiger_network.node[12].core_layer 	repo_load[12] 	9280
scalar tiger_network.node[12].core_layer 	data[12] 	20230
scalar tiger_network.node[12].content_store 	p_hit[12] 	0.15371379409234
scalar tiger_network.node[12].content_store 	hits[12] 	5360
scalar tiger_network.node[12].content_store 	misses[12] 	29510
scalar tiger_network.node[12].content_store 	decision_yes[12] 	94
scalar tiger_network.node[12].content_store 	decision_no[12] 	29416
scalar tiger_network.node[12].content_store 	decision_ratio[12] 	0.003185360894612
scalar tiger_network.node[13].core_layer 	interests[13] 	24115
scalar tiger_network.node[13].core_layer 	repo_load[13] 	8950
scalar tiger_network.node[13].core_layer 	data[13] 	10316
scalar tiger_network.node[13].content_store 	p_hit[13] 	0.2010781671159
scalar tiger_network.node[13].content_store 	hits[13] 	4849
scalar tiger_network.node[13].content_store 	misses[13] 	19266
scalar tiger_network.node[13].content_store 	decision_yes[13] 	80
scalar tiger_network.node[13].content_store 	decision_no[13] 	19186
scalar tiger_network.node[13].content_store 	decision_ratio[13] 	0.0041523928163604
scalar tiger_network.node[14].core_layer 	interests[14] 	16381
scalar tiger_network.node[14].core_layer 	data[14] 	11244
scalar tiger_network.node[14].content_store 	p_hit[14] 	0.31359501861913
scalar tiger_network.node[14].content_store 	hits[14] 	5137
scalar tiger_network.node[14].content_store 	misses[14] 	11244
scalar tiger_network.node[14].content_store 	decision_yes[14] 	35
scalar tiger_network.node[14].content_store 	decision_no[14] 	11209
scalar tiger_network.node[14].content_store 	decision_ratio[14] 	0.0031127712557809
scalar tiger_network.node[15].core_layer 	interests[15] 	25194
scalar tiger_network.node[15].core_layer 	repo_load[15] 	8749
scalar tiger_network.node[15].core_layer 	data[15] 	11896
scalar tiger_network.node[15].content_store 	p_hit[15] 	0.1805588632214
scalar tiger_network.node[15].content_store 	hits[15] 	4549
scalar tiger_network.node[15].content_store 	misses[15] 	20645
scalar tiger_network.node[15].content_store 	decision_yes[15] 	79
scalar tiger_network.node[15].content_store 	decision_no[15] 	20566
scalar tiger_network.node[15].content_store 	decision_ratio[15] 	0.0038265923952531
scalar tiger_network.node[16].core_layer 	interests[16] 	29957
scalar tiger_network.node[16].core_layer 	repo_load[16] 	9075
scalar tiger_network.node[16].core_layer 	data[16] 	15561
scalar tiger_network.node[16].content_store 	p_hit[16] 	0.17762125713523
scalar tiger_network.node[16].content_store 	hits[16] 	5321
scalar tiger_network.node[16].content_store 	misses[16] 	24636
scalar tiger_network.node[16].content_store 	decision_yes[16] 	79
scalar tiger_network.node[16].content_store 	decision_no[16] 	24557
scalar tiger_network.node[16].content_store 	decision_ratio[16] 	0.0032066893976295
scalar tiger_network.node[17].core_layer 	interests[17] 	31275
scalar tiger_network.node[17].core_layer 	data[17] 	25411
scalar tiger_network.node[17].content_store 	p_hit[17] 	0.18749800159872
scalar tiger_network.node[17].content_store 	hits[17] 	5864
scalar tiger_network.node[17].content_store 	misses[17] 	25411
scalar tiger_network.node[17].content_store 	decision_yes[17] 	65
scalar tiger_network.node[17].content_store 	decision_no[17] 	25346
scalar tiger_network.node[17].content_store 	decision_ratio[17] 	0.0025579473456377
scalar tiger_network.node[18].core_layer 	interests[18] 	42076
scalar tiger_network.node[18].core_layer 	repo_load[18] 	9870
scalar tiger_network.node[18].core_layer 	data[18] 	26996
scalar tiger_network.node[18].content_store 	p_hit[18] 	0.12382355737237
scalar tiger_network.node[18].content_store 	hits[18] 	5210
scalar tiger_network.node[18].content_store 	misses[18] 	36866
scalar tiger_network.node[18].content_store 	decision_yes[18] 	104
scalar tiger_network.node[18].content_store 	decision_no[18] 	36762
scalar tiger_network.node[18].content_store 	decision_ratio[18] 	0.0028210275050182
scalar tiger_network.node[19].core_layer 	interests[19] 	22749
scalar tiger_network.node[19].core_layer 	data[19] 	16945
scalar tiger_network.node[19].content_store 	p_hit[19] 	0.25513209371841
scalar tiger_network.node[19].content_store 	hits[19] 	5804
scalar tiger_network.node[19].content_store 	misses[19] 	16945
scalar tiger_network.node[19].content_store 	decision_yes[19] 	65
scalar tiger_network.node[19].content_store 	decision_no[19] 	16880
scalar tiger_network.node[19].content_store 	decision_ratio[19] 	0.0038359398052523
scalar tiger_network.node[20].core_layer 	interests[20] 	26481
scalar tiger_network.node[20].core_layer 	repo_load[20] 	9152
scalar tiger_network.node[20].core_layer 	data[20] 	12413
scalar tiger_network.node[20].content_store 	p_hit[20] 	0.185642536158
scalar tiger_network.node[20].content_store 	hits[20] 	4916
scalar tiger_network.node[20].content_store 	misses[20] 	21565
scalar tiger_network.node[20].content_store 	decision_yes[20] 	92
scalar tiger_network.node[20].content_store 	decision_no[20] 	21473
scalar tiger_network.node[20].content_store 	decision_ratio[20] 	0.0042661720380246
scalar tiger_network.node[21].core_layer 	interests[21] 	27169
scalar tiger_network.node[21].core_layer 	repo_load[21] 	9028
scalar tiger_network.node[21].core_layer 	data[21] 	13257
scalar tiger_network.node[21].content_store 	p_hit[21] 	0.17976370127719
scalar tiger_network.node[21].content_store 	hits[21] 	4884
scalar tiger_network.node[21].content_store 	misses[21] 	22285
scalar tiger_network.node[21].content_store 	decision_yes[21] 	77
scalar tiger_network.node[21].content_store 	decision_no[21] 	22208
scalar tiger_network.node[21].content_store 	decision_ratio[21] 	0.0034552389499663
scalar tiger_network.client[0] 	hdistance[0] 	2.2320152849311
scalar tiger_network.client[0] 	downloads[0] 	12038
scalar tiger_network.client[0] 	avg_time[0] 	0.000524785322
scalar tiger_network.client[1] 	hdistance[1] 	2.2522836738083
scalar tiger_network.client[1] 	downloads[1] 	12042
scalar tiger_network.client[1] 	avg_time[1] 	0.000783668478
scalar tiger_network.client[2] 	hdistance[2] 	2.1601588352085
scalar tiger_network.client[2] 	downloads[2] 	12088
scalar tiger_network.client[2] 	avg_time[2] 	0.000847872135
scalar tiger_network.client[3] 	hdistance[3] 	2.3270873061935
scalar tiger_network.client[3] 	downloads[3] 	12061
scalar tiger_network.client[3] 	avg_time[3] 	0.000957230253
scalar tiger_network.client[4] 	hdistance[4] 	2.3784303882195
scalar tiger_network.client[4] 	downloads[4] 	11952
scalar tiger_network.client[4] 	avg_time[4] 	0.00098013052
scalar tiger_network.client[5] 	hdistance[5] 	2.4367615243801
scalar tiger_network.client[5] 	downloads[5] 	12018
scalar tiger_network.client[5] 	avg_time[5] 	0.001016825412
scalar tiger_network.client[6] 	hdistance[6] 	2.3040886575435
scalar tiger_network.client[6] 	downloads[6] 	11911
scalar tiger_network.client[6] 	avg_time[6] 	0.000757958086
scalar tiger_network.client[7] 	hdistance[7] 	2.238063550158
scalar tiger_network.client[7] 	downloads[7] 	12022
scalar tiger_network.client[7] 	avg_time[7] 	0.000730745778
scalar tiger_network.client[8] 	hdistance[8] 	2.1980314629427
scalar tiger_network.client[8] 	downloads[8] 	11887
scalar tiger_network.client[8] 	avg_time[8] 	0.000697861575
scalar tiger_network.client[9] 	hdistance[9] 	2.522621564482
scalar tiger_network.client[9] 	downloads[9] 	11825
scalar tiger_network.client[9] 	avg_time[9] 	0.000650540151
scalar tiger_network.client[10] 	hdistance[10] 	2.4974615064503
scalar tiger_network.client[10] 	downloads[10] 	12015
scalar tiger_network.client[10] 	avg_time[10] 	0.00073098656
scalar tiger_network.client[11] 	hdistance[11] 	2.4090529480541
scalar tiger_network.client[11] 	downloads[11] 	11974
scalar tiger_network.client[11] 	avg_time[11] 	0.000459224317
scalar tiger_network.client[12] 	hdistance[12] 	2.3328905860867
scalar tiger_network.client[12] 	downloads[12] 	12046
scalar tiger_network.client[12] 	avg_time[12] 	0.000789965299
scalar tiger_network.client[13] 	hdistance[13] 	2.4641969169568
scalar tiger_network.client[13] 	downloads[13] 	12066
scalar tiger_network.client[13] 	avg_time[13] 	0.000792259722
scalar tiger_network.client[14] 	hdistance[14] 	2.6706086668872
scalar tiger_network.client[14] 	downloads[14] 	12092
scalar tiger_network.client[14] 	avg_time[14] 	0.000750488027
scalar tiger_network.client[15] 	hdistance[15] 	2.5427417360481
scalar tiger_network.client[15] 	downloads[15] 	12131
scalar tiger_network.client[15] 	avg_time[15] 	0.000707628635
scalar tiger_network.client[16] 	hdistance[16] 	2.360585052418
scalar tiger_network.client[16] 	downloads[16] 	11828
scalar tiger_network.client[16] 	avg_time[16] 	0.000716399147
scalar tiger_network.client[17] 	hdistance[17] 	2.2129807291232
scalar tiger_network.client[17] 	downloads[17] 	11987
scalar tiger_network.client[17] 	avg_time[17] 	0.000620932499
scalar tiger_network.client[18] 	hdistance[18] 	2.162814239919
scalar tiger_network.client[18] 	downloads[18] 	11854
scalar tiger_network.client[18] 	avg_time[18] 	0.000410520052
scalar tiger_network.client[19] 	hdistance[19] 	2.192291684009
scalar tiger_network.client[19] 	downloads[19] 	12013
scalar tiger_network.client[19] 	avg_time[19] 	0.000304749816
scalar tiger_network.client[20] 	hdistance[20] 	2.4090719238159
scalar tiger_network.client[20] 	downloads[20] 	11971
scalar tiger_network.client[20] 	avg_time[20] 	0.000582137187
scalar tiger_network.client[21] 	hdistance[21] 	2.3698199728261
scalar tiger_network.client[21] 	downloads[21] 	11776
scalar tiger_network.client[21] 	avg_time[21] 	0.000550779324
