version 2
run General-33-20160826-10:42:23-19693
attr D ffc0.2
attr F nrr
attr R lru
attr a 0.9
attr configname General
attr datetime 20160826-10:42:23
attr experiment General
attr inifile hw5115/scenario_C/omnetp.ini
attr iterationvars "$net=tiger, $rep=4, $a=0.9, $F=nrr, $D=ffc0.2, $R=lru, $window=60, $variance=0.05, $mytime=600"
attr iterationvars2 "$net=tiger, $rep=4, $a=0.9, $F=nrr, $D=ffc0.2, $R=lru, $window=60, $variance=0.05, $mytime=600, $repetition=0"
attr measurement "$net=tiger, $rep=4, $a=0.9, $F=nrr, $D=ffc0.2, $R=lru, $window=60, $variance=0.05, $mytime=600"
attr mytime 600
attr net tiger
attr network networks.${net=tiger}_network
attr processid 19693
attr rep 4
attr repetition 0
attr replication #0
attr resultdir results
attr runnumber 33
attr seedset 4
attr variance 0.05
attr window 60

scalar . 	a 	0.9
scalar . 	mytime 	600
scalar . 	rep 	4
scalar . 	variance 	0.05
scalar . 	window 	60
scalar tiger_network.content_distribution 	repo-0 	18
scalar tiger_network.content_distribution 	repo-1 	16
scalar tiger_network.content_distribution 	repo-2 	10
scalar tiger_network.content_distribution 	repo-3 	6
scalar tiger_network.content_distribution 	repo-4 	2
scalar tiger_network.content_distribution 	repo-5 	20
scalar tiger_network.content_distribution 	repo-6 	12
scalar tiger_network.content_distribution 	repo-7 	3
scalar tiger_network.content_distribution 	repo-8 	14
scalar tiger_network.content_distribution 	repo-9 	5
scalar tiger_network.content_distribution 	repo-10 	13
scalar tiger_network.content_distribution 	repo-11 	9
scalar tiger_network.content_distribution 	repo-12 	11
scalar tiger_network.content_distribution 	repo-13 	0
scalar tiger_network.content_distribution 	repo-14 	19
scalar tiger_network.content_distribution 	repo-15 	21
scalar tiger_network.content_distribution 	client-0 	21
scalar tiger_network.content_distribution 	client-1 	9
scalar tiger_network.content_distribution 	client-2 	6
scalar tiger_network.content_distribution 	client-3 	2
scalar tiger_network.content_distribution 	client-4 	14
scalar tiger_network.content_distribution 	client-5 	8
scalar tiger_network.content_distribution 	client-6 	17
scalar tiger_network.content_distribution 	client-7 	0
scalar tiger_network.content_distribution 	client-8 	19
scalar tiger_network.content_distribution 	client-9 	10
scalar tiger_network.content_distribution 	client-10 	13
scalar tiger_network.content_distribution 	client-11 	1
scalar tiger_network.content_distribution 	client-12 	3
scalar tiger_network.content_distribution 	client-13 	18
scalar tiger_network.content_distribution 	client-14 	15
scalar tiger_network.content_distribution 	client-15 	16
scalar tiger_network.content_distribution 	client-16 	12
scalar tiger_network.content_distribution 	client-17 	11
scalar tiger_network.content_distribution 	client-18 	7
scalar tiger_network.content_distribution 	client-19 	4
scalar tiger_network.content_distribution 	client-20 	5
scalar tiger_network.content_distribution 	client-21 	20
scalar tiger_network.content_distribution 	repo-0_card 	6113
scalar tiger_network.content_distribution 	repo-0_price 	0
scalar tiger_network.content_distribution 	repo-1_card 	6294
scalar tiger_network.content_distribution 	repo-1_price 	0
scalar tiger_network.content_distribution 	repo-2_card 	6315
scalar tiger_network.content_distribution 	repo-2_price 	0
scalar tiger_network.content_distribution 	repo-3_card 	6169
scalar tiger_network.content_distribution 	repo-3_price 	0
scalar tiger_network.content_distribution 	repo-4_card 	6306
scalar tiger_network.content_distribution 	repo-4_price 	0
scalar tiger_network.content_distribution 	repo-5_card 	6221
scalar tiger_network.content_distribution 	repo-5_price 	0
scalar tiger_network.content_distribution 	repo-6_card 	6389
scalar tiger_network.content_distribution 	repo-6_price 	0
scalar tiger_network.content_distribution 	repo-7_card 	6226
scalar tiger_network.content_distribution 	repo-7_price 	0
scalar tiger_network.content_distribution 	repo-8_card 	6293
scalar tiger_network.content_distribution 	repo-8_price 	0
scalar tiger_network.content_distribution 	repo-9_card 	6212
scalar tiger_network.content_distribution 	repo-9_price 	0
scalar tiger_network.content_distribution 	repo-10_card 	6328
scalar tiger_network.content_distribution 	repo-10_price 	0
scalar tiger_network.content_distribution 	repo-11_card 	6234
scalar tiger_network.content_distribution 	repo-11_price 	0
scalar tiger_network.content_distribution 	repo-12_card 	6163
scalar tiger_network.content_distribution 	repo-12_price 	0
scalar tiger_network.content_distribution 	repo-13_card 	6137
scalar tiger_network.content_distribution 	repo-13_price 	0
scalar tiger_network.content_distribution 	repo-14_card 	6292
scalar tiger_network.content_distribution 	repo-14_price 	0
scalar tiger_network.content_distribution 	repo-15_card 	6308
scalar tiger_network.content_distribution 	repo-15_price 	0
scalar tiger_network.statistics 	stabilization_time 	1246.2
scalar tiger_network.statistics 	p_hit 	0.16567600692638
scalar tiger_network.statistics 	interests 	33453.909090909
scalar tiger_network.statistics 	data 	21456.727272727
scalar tiger_network.statistics 	hdistance 	2.3516300420457
scalar tiger_network.statistics 	avg_time 	0.000654399755
scalar tiger_network.statistics 	downloads 	263938
scalar tiger_network.statistics 	total_cost 	0
scalar tiger_network.statistics 	total_replicas 	100000
scalar tiger_network.statistics 	inner_hit 	0.43664042312967
scalar tiger_network.node[0].core_layer 	interests[0] 	47458
scalar tiger_network.node[0].core_layer 	repo_load[0] 	9156
scalar tiger_network.node[0].core_layer 	data[0] 	32841
scalar tiger_network.node[0].core_layer 	repo_int[0] 	148692
scalar tiger_network.node[0].content_store 	p_hit[0] 	0.11507016730583
scalar tiger_network.node[0].content_store 	hits[0] 	5461
scalar tiger_network.node[0].content_store 	misses[0] 	41997
scalar tiger_network.node[0].content_store 	decision_yes[0] 	99
scalar tiger_network.node[0].content_store 	decision_no[0] 	41898
scalar tiger_network.node[0].content_store 	decision_ratio[0] 	0.0023573112365169
scalar tiger_network.node[1].core_layer 	interests[1] 	39378
scalar tiger_network.node[1].core_layer 	data[1] 	34033
scalar tiger_network.node[1].content_store 	p_hit[1] 	0.13573568997918
scalar tiger_network.node[1].content_store 	hits[1] 	5345
scalar tiger_network.node[1].content_store 	misses[1] 	34033
scalar tiger_network.node[1].content_store 	decision_yes[1] 	82
scalar tiger_network.node[1].content_store 	decision_no[1] 	33951
scalar tiger_network.node[1].content_store 	decision_ratio[1] 	0.002409426145212
scalar tiger_network.node[2].core_layer 	interests[2] 	53947
scalar tiger_network.node[2].core_layer 	repo_load[2] 	10341
scalar tiger_network.node[2].core_layer 	data[2] 	37907
scalar tiger_network.node[2].content_store 	p_hit[2] 	0.10564072144883
scalar tiger_network.node[2].content_store 	hits[2] 	5699
scalar tiger_network.node[2].content_store 	misses[2] 	48248
scalar tiger_network.node[2].content_store 	decision_yes[2] 	124
scalar tiger_network.node[2].content_store 	decision_no[2] 	48124
scalar tiger_network.node[2].content_store 	decision_ratio[2] 	0.002570054717294
scalar tiger_network.node[3].core_layer 	interests[3] 	45997
scalar tiger_network.node[3].core_layer 	repo_load[3] 	9788
scalar tiger_network.node[3].core_layer 	data[3] 	30945
scalar tiger_network.node[3].content_store 	p_hit[3] 	0.11444224623345
scalar tiger_network.node[3].content_store 	hits[3] 	5264
scalar tiger_network.node[3].content_store 	misses[3] 	40733
scalar tiger_network.node[3].content_store 	decision_yes[3] 	120
scalar tiger_network.node[3].content_store 	decision_no[3] 	40613
scalar tiger_network.node[3].content_store 	decision_ratio[3] 	0.0029460142881693
scalar tiger_network.node[4].core_layer 	interests[4] 	30201
scalar tiger_network.node[4].core_layer 	data[4] 	24941
scalar tiger_network.node[4].content_store 	p_hit[4] 	0.17416641833052
scalar tiger_network.node[4].content_store 	hits[4] 	5260
scalar tiger_network.node[4].content_store 	misses[4] 	24941
scalar tiger_network.node[4].content_store 	decision_yes[4] 	69
scalar tiger_network.node[4].content_store 	decision_no[4] 	24872
scalar tiger_network.node[4].content_store 	decision_ratio[4] 	0.00276652900846
scalar tiger_network.node[5].core_layer 	interests[5] 	24463
scalar tiger_network.node[5].core_layer 	repo_load[5] 	8703
scalar tiger_network.node[5].core_layer 	data[5] 	10716
scalar tiger_network.node[5].content_store 	p_hit[5] 	0.20618893839676
scalar tiger_network.node[5].content_store 	hits[5] 	5044
scalar tiger_network.node[5].content_store 	misses[5] 	19419
scalar tiger_network.node[5].content_store 	decision_yes[5] 	70
scalar tiger_network.node[5].content_store 	decision_no[5] 	19349
scalar tiger_network.node[5].content_store 	decision_ratio[5] 	0.0036047170297132
scalar tiger_network.node[6].core_layer 	interests[6] 	32857
scalar tiger_network.node[6].core_layer 	repo_load[6] 	9173
scalar tiger_network.node[6].core_layer 	data[6] 	18783
scalar tiger_network.node[6].content_store 	p_hit[6] 	0.14916151809356
scalar tiger_network.node[6].content_store 	hits[6] 	4901
scalar tiger_network.node[6].content_store 	misses[6] 	27956
scalar tiger_network.node[6].content_store 	decision_yes[6] 	86
scalar tiger_network.node[6].content_store 	decision_no[6] 	27870
scalar tiger_network.node[6].content_store 	decision_ratio[6] 	0.0030762626985263
scalar tiger_network.node[7].core_layer 	interests[7] 	31900
scalar tiger_network.node[7].core_layer 	data[7] 	26733
scalar tiger_network.node[7].content_store 	p_hit[7] 	0.16197492163009
scalar tiger_network.node[7].content_store 	hits[7] 	5167
scalar tiger_network.node[7].content_store 	misses[7] 	26733
scalar tiger_network.node[7].content_store 	decision_yes[7] 	57
scalar tiger_network.node[7].content_store 	decision_no[7] 	26676
scalar tiger_network.node[7].content_store 	decision_ratio[7] 	0.0021321961620469
scalar tiger_network.node[8].core_layer 	interests[8] 	40507
scalar tiger_network.node[8].core_layer 	data[8] 	34726
scalar tiger_network.node[8].content_store 	p_hit[8] 	0.14271607376503
scalar tiger_network.node[8].content_store 	hits[8] 	5781
scalar tiger_network.node[8].content_store 	misses[8] 	34726
scalar tiger_network.node[8].content_store 	decision_yes[8] 	100
scalar tiger_network.node[8].content_store 	decision_no[8] 	34626
scalar tiger_network.node[8].content_store 	decision_ratio[8] 	0.0028796866900881
scalar tiger_network.node[9].core_layer 	interests[9] 	24333
scalar tiger_network.node[9].core_layer 	repo_load[9] 	8821
scalar tiger_network.node[9].core_layer 	data[9] 	10737
scalar tiger_network.node[9].content_store 	p_hit[9] 	0.19623556487075
scalar tiger_network.node[9].content_store 	hits[9] 	4775
scalar tiger_network.node[9].content_store 	misses[9] 	19558
scalar tiger_network.node[9].content_store 	decision_yes[9] 	66
scalar tiger_network.node[9].content_store 	decision_no[9] 	19492
scalar tiger_network.node[9].content_store 	decision_ratio[9] 	0.0033745781777278
scalar tiger_network.node[10].core_layer 	interests[10] 	28552
scalar tiger_network.node[10].core_layer 	repo_load[10] 	9250
scalar tiger_network.node[10].core_layer 	data[10] 	14277
scalar tiger_network.node[10].content_store 	p_hit[10] 	0.17599467637994
scalar tiger_network.node[10].content_store 	hits[10] 	5025
scalar tiger_network.node[10].content_store 	misses[10] 	23527
scalar tiger_network.node[10].content_store 	decision_yes[10] 	97
scalar tiger_network.node[10].content_store 	decision_no[10] 	23430
scalar tiger_network.node[10].content_store 	decision_ratio[10] 	0.0041229225995665
scalar tiger_network.node[11].core_layer 	interests[11] 	29786
scalar tiger_network.node[11].core_layer 	repo_load[11] 	9058
scalar tiger_network.node[11].core_layer 	data[11] 	15676
scalar tiger_network.node[11].content_store 	p_hit[11] 	0.16960988383804
scalar tiger_network.node[11].content_store 	hits[11] 	5052
scalar tiger_network.node[11].content_store 	misses[11] 	24734
scalar tiger_network.node[11].content_store 	decision_yes[11] 	78
scalar tiger_network.node[11].content_store 	decision_no[11] 	24656
scalar tiger_network.node[11].content_store 	decision_ratio[11] 	0.0031535538125657
scalar tiger_network.node[12].core_layer 	interests[12] 	40570
scalar tiger_network.node[12].core_layer 	repo_load[12] 	9931
scalar tiger_network.node[12].core_layer 	data[12] 	24889
scalar tiger_network.node[12].content_store 	p_hit[12] 	0.1417303426177
scalar tiger_network.node[12].content_store 	hits[12] 	5750
scalar tiger_network.node[12].content_store 	misses[12] 	34820
scalar tiger_network.node[12].content_store 	decision_yes[12] 	109
scalar tiger_network.node[12].content_store 	decision_no[12] 	34711
scalar tiger_network.node[12].content_store 	decision_ratio[12] 	0.003130384836301
scalar tiger_network.node[13].core_layer 	interests[13] 	27186
scalar tiger_network.node[13].core_layer 	repo_load[13] 	9167
scalar tiger_network.node[13].core_layer 	data[13] 	12999
scalar tiger_network.node[13].content_store 	p_hit[13] 	0.18465386596042
scalar tiger_network.node[13].content_store 	hits[13] 	5020
scalar tiger_network.node[13].content_store 	misses[13] 	22166
scalar tiger_network.node[13].content_store 	decision_yes[13] 	73
scalar tiger_network.node[13].content_store 	decision_no[13] 	22093
scalar tiger_network.node[13].content_store 	decision_ratio[13] 	0.0032933321302896
scalar tiger_network.node[14].core_layer 	interests[14] 	24899
scalar tiger_network.node[14].core_layer 	repo_load[14] 	9198
scalar tiger_network.node[14].core_layer 	data[14] 	11079
scalar tiger_network.node[14].content_store 	p_hit[14] 	0.18562994497771
scalar tiger_network.node[14].content_store 	hits[14] 	4622
scalar tiger_network.node[14].content_store 	misses[14] 	20277
scalar tiger_network.node[14].content_store 	decision_yes[14] 	80
scalar tiger_network.node[14].content_store 	decision_no[14] 	20197
scalar tiger_network.node[14].content_store 	decision_ratio[14] 	0.0039453568082063
scalar tiger_network.node[15].core_layer 	interests[15] 	18376
scalar tiger_network.node[15].core_layer 	data[15] 	13448
scalar tiger_network.node[15].content_store 	p_hit[15] 	0.26817588158468
scalar tiger_network.node[15].content_store 	hits[15] 	4928
scalar tiger_network.node[15].content_store 	misses[15] 	13448
scalar tiger_network.node[15].content_store 	decision_yes[15] 	42
scalar tiger_network.node[15].content_store 	decision_no[15] 	13406
scalar tiger_network.node[15].content_store 	decision_ratio[15] 	0.0031231409875074
scalar tiger_network.node[16].core_layer 	interests[16] 	28963
scalar tiger_network.node[16].core_layer 	repo_load[16] 	9315
scalar tiger_network.node[16].core_layer 	data[16] 	14179
scalar tiger_network.node[16].content_store 	p_hit[16] 	0.18882712426199
scalar tiger_network.node[16].content_store 	hits[16] 	5469
scalar tiger_network.node[16].content_store 	misses[16] 	23494
scalar tiger_network.node[16].content_store 	decision_yes[16] 	84
scalar tiger_network.node[16].content_store 	decision_no[16] 	23410
scalar tiger_network.node[16].content_store 	decision_ratio[16] 	0.0035753809483272
scalar tiger_network.node[17].core_layer 	interests[17] 	35104
scalar tiger_network.node[17].core_layer 	data[17] 	29285
scalar tiger_network.node[17].content_store 	p_hit[17] 	0.16576458523245
scalar tiger_network.node[17].content_store 	hits[17] 	5819
scalar tiger_network.node[17].content_store 	misses[17] 	29285
scalar tiger_network.node[17].content_store 	decision_yes[17] 	64
scalar tiger_network.node[17].content_store 	decision_no[17] 	29221
scalar tiger_network.node[17].content_store 	decision_ratio[17] 	0.0021854191565648
scalar tiger_network.node[18].core_layer 	interests[18] 	47064
scalar tiger_network.node[18].core_layer 	repo_load[18] 	9303
scalar tiger_network.node[18].core_layer 	data[18] 	32150
scalar tiger_network.node[18].content_store 	p_hit[18] 	0.11922063573007
scalar tiger_network.node[18].content_store 	hits[18] 	5611
scalar tiger_network.node[18].content_store 	misses[18] 	41453
scalar tiger_network.node[18].content_store 	decision_yes[18] 	111
scalar tiger_network.node[18].content_store 	decision_no[18] 	41342
scalar tiger_network.node[18].content_store 	decision_ratio[18] 	0.0026777314066533
scalar tiger_network.node[19].core_layer 	interests[19] 	31264
scalar tiger_network.node[19].core_layer 	repo_load[19] 	9409
scalar tiger_network.node[19].core_layer 	data[19] 	16451
scalar tiger_network.node[19].content_store 	p_hit[19] 	0.1728505629478
scalar tiger_network.node[19].content_store 	hits[19] 	5404
scalar tiger_network.node[19].content_store 	misses[19] 	25860
scalar tiger_network.node[19].content_store 	decision_yes[19] 	90
scalar tiger_network.node[19].content_store 	decision_no[19] 	25770
scalar tiger_network.node[19].content_store 	decision_ratio[19] 	0.0034802784222738
scalar tiger_network.node[20].core_layer 	interests[20] 	25477
scalar tiger_network.node[20].core_layer 	repo_load[20] 	8642
scalar tiger_network.node[20].core_layer 	data[20] 	11899
scalar tiger_network.node[20].content_store 	p_hit[20] 	0.19374337637869
scalar tiger_network.node[20].content_store 	hits[20] 	4936
scalar tiger_network.node[20].content_store 	misses[20] 	20541
scalar tiger_network.node[20].content_store 	decision_yes[20] 	68
scalar tiger_network.node[20].content_store 	decision_no[20] 	20473
scalar tiger_network.node[20].content_store 	decision_ratio[20] 	0.0033104522661993
scalar tiger_network.node[21].core_layer 	interests[21] 	27704
scalar tiger_network.node[21].core_layer 	repo_load[21] 	9437
scalar tiger_network.node[21].core_layer 	data[21] 	13354
scalar tiger_network.node[21].content_store 	p_hit[21] 	0.17733901241698
scalar tiger_network.node[21].content_store 	hits[21] 	4913
scalar tiger_network.node[21].content_store 	misses[21] 	22791
scalar tiger_network.node[21].content_store 	decision_yes[21] 	89
scalar tiger_network.node[21].content_store 	decision_no[21] 	22702
scalar tiger_network.node[21].content_store 	decision_ratio[21] 	0.0039050502391295
scalar tiger_network.client[0] 	hdistance[0] 	2.0255315586807
scalar tiger_network.client[0] 	downloads[0] 	11946
scalar tiger_network.client[0] 	avg_time[0] 	0.000436053936
scalar tiger_network.client[1] 	hdistance[1] 	2.3272543911253
scalar tiger_network.client[1] 	downloads[1] 	11899
scalar tiger_network.client[1] 	avg_time[1] 	0.000770783315
scalar tiger_network.client[2] 	hdistance[2] 	2.1609853197313
scalar tiger_network.client[2] 	downloads[2] 	12057
scalar tiger_network.client[2] 	avg_time[2] 	0.000846184076
scalar tiger_network.client[3] 	hdistance[3] 	2.3210486640422
scalar tiger_network.client[3] 	downloads[3] 	11939
scalar tiger_network.client[3] 	avg_time[3] 	0.000919639059
scalar tiger_network.client[4] 	hdistance[4] 	2.4139147970759
scalar tiger_network.client[4] 	downloads[4] 	11901
scalar tiger_network.client[4] 	avg_time[4] 	0.000930049123
scalar tiger_network.client[5] 	hdistance[5] 	2.5175779634378
scalar tiger_network.client[5] 	downloads[5] 	12089
scalar tiger_network.client[5] 	avg_time[5] 	0.001007146288
scalar tiger_network.client[6] 	hdistance[6] 	2.4829398515058
scalar tiger_network.client[6] 	downloads[6] 	11987
scalar tiger_network.client[6] 	avg_time[6] 	0.000722698459
scalar tiger_network.client[7] 	hdistance[7] 	2.4126145463552
scalar tiger_network.client[7] 	downloads[7] 	12113
scalar tiger_network.client[7] 	avg_time[7] 	0.000726619766
scalar tiger_network.client[8] 	hdistance[8] 	2.3121666666667
scalar tiger_network.client[8] 	downloads[8] 	12000
scalar tiger_network.client[8] 	avg_time[8] 	0.000705575658
scalar tiger_network.client[9] 	hdistance[9] 	2.5610059760956
scalar tiger_network.client[9] 	downloads[9] 	12048
scalar tiger_network.client[9] 	avg_time[9] 	0.000616513745
scalar tiger_network.client[10] 	hdistance[10] 	2.4887330996495
scalar tiger_network.client[10] 	downloads[10] 	11982
scalar tiger_network.client[10] 	avg_time[10] 	0.000693880329
scalar tiger_network.client[11] 	hdistance[11] 	2.2258950874271
scalar tiger_network.client[11] 	downloads[11] 	12010
scalar tiger_network.client[11] 	avg_time[11] 	0.000330638776
scalar tiger_network.client[12] 	hdistance[12] 	2.0950509948169
scalar tiger_network.client[12] 	downloads[12] 	11962
scalar tiger_network.client[12] 	avg_time[12] 	0.000569412854
scalar tiger_network.client[13] 	hdistance[13] 	2.3535328136787
scalar tiger_network.client[13] 	downloads[13] 	11931
scalar tiger_network.client[13] 	avg_time[13] 	0.000615265656
scalar tiger_network.client[14] 	hdistance[14] 	2.5936932474822
scalar tiger_network.client[14] 	downloads[14] 	12114
scalar tiger_network.client[14] 	avg_time[14] 	0.000607836199
scalar tiger_network.client[15] 	hdistance[15] 	2.540456605674
scalar tiger_network.client[15] 	downloads[15] 	11914
scalar tiger_network.client[15] 	avg_time[15] 	0.000615151126
scalar tiger_network.client[16] 	hdistance[16] 	2.4248300176278
scalar tiger_network.client[16] 	downloads[16] 	11913
scalar tiger_network.client[16] 	avg_time[16] 	0.000618687551
scalar tiger_network.client[17] 	hdistance[17] 	2.2502713081225
scalar tiger_network.client[17] 	downloads[17] 	11979
scalar tiger_network.client[17] 	avg_time[17] 	0.000616317069
scalar tiger_network.client[18] 	hdistance[18] 	2.1046232735092
scalar tiger_network.client[18] 	downloads[18] 	12091
scalar tiger_network.client[18] 	avg_time[18] 	0.000436850008
scalar tiger_network.client[19] 	hdistance[19] 	2.1727774987444
scalar tiger_network.client[19] 	downloads[19] 	11946
scalar tiger_network.client[19] 	avg_time[19] 	0.000370220182
scalar tiger_network.client[20] 	hdistance[20] 	2.4987279441937
scalar tiger_network.client[20] 	downloads[20] 	12185
scalar tiger_network.client[20] 	avg_time[20] 	0.000640310969
scalar tiger_network.client[21] 	hdistance[21] 	2.4522292993631
scalar tiger_network.client[21] 	downloads[21] 	11932
scalar tiger_network.client[21] 	avg_time[21] 	0.000600960481
