version 2
run General-78-20160826-12:16:45-19693
attr D ffc0.2
attr F nrr
attr R lru
attr a 0.9
attr configname General
attr datetime 20160826-12:16:45
attr experiment General
attr inifile hw5115/scenario_C/omnetp.ini
attr iterationvars "$net=tiger, $rep=9, $a=0.9, $F=nrr, $D=ffc0.2, $R=lru, $window=60, $variance=0.05, $mytime=600"
attr iterationvars2 "$net=tiger, $rep=9, $a=0.9, $F=nrr, $D=ffc0.2, $R=lru, $window=60, $variance=0.05, $mytime=600, $repetition=0"
attr measurement "$net=tiger, $rep=9, $a=0.9, $F=nrr, $D=ffc0.2, $R=lru, $window=60, $variance=0.05, $mytime=600"
attr mytime 600
attr net tiger
attr network networks.${net=tiger}_network
attr processid 19693
attr rep 9
attr repetition 0
attr replication #0
attr resultdir results
attr runnumber 78
attr seedset 9
attr variance 0.05
attr window 60

scalar . 	a 	0.9
scalar . 	mytime 	600
scalar . 	rep 	9
scalar . 	variance 	0.05
scalar . 	window 	60
scalar tiger_network.content_distribution 	repo-0 	1
scalar tiger_network.content_distribution 	repo-1 	5
scalar tiger_network.content_distribution 	repo-2 	20
scalar tiger_network.content_distribution 	repo-3 	0
scalar tiger_network.content_distribution 	repo-4 	3
scalar tiger_network.content_distribution 	repo-5 	12
scalar tiger_network.content_distribution 	repo-6 	19
scalar tiger_network.content_distribution 	repo-7 	8
scalar tiger_network.content_distribution 	repo-8 	18
scalar tiger_network.content_distribution 	repo-9 	11
scalar tiger_network.content_distribution 	repo-10 	7
scalar tiger_network.content_distribution 	repo-11 	14
scalar tiger_network.content_distribution 	repo-12 	13
scalar tiger_network.content_distribution 	repo-13 	2
scalar tiger_network.content_distribution 	repo-14 	6
scalar tiger_network.content_distribution 	repo-15 	4
scalar tiger_network.content_distribution 	client-0 	21
scalar tiger_network.content_distribution 	client-1 	9
scalar tiger_network.content_distribution 	client-2 	6
scalar tiger_network.content_distribution 	client-3 	2
scalar tiger_network.content_distribution 	client-4 	14
scalar tiger_network.content_distribution 	client-5 	8
scalar tiger_network.content_distribution 	client-6 	17
scalar tiger_network.content_distribution 	client-7 	0
scalar tiger_network.content_distribution 	client-8 	19
scalar tiger_network.content_distribution 	client-9 	10
scalar tiger_network.content_distribution 	client-10 	13
scalar tiger_network.content_distribution 	client-11 	1
scalar tiger_network.content_distribution 	client-12 	3
scalar tiger_network.content_distribution 	client-13 	18
scalar tiger_network.content_distribution 	client-14 	15
scalar tiger_network.content_distribution 	client-15 	16
scalar tiger_network.content_distribution 	client-16 	12
scalar tiger_network.content_distribution 	client-17 	11
scalar tiger_network.content_distribution 	client-18 	7
scalar tiger_network.content_distribution 	client-19 	4
scalar tiger_network.content_distribution 	client-20 	5
scalar tiger_network.content_distribution 	client-21 	20
scalar tiger_network.content_distribution 	repo-0_card 	6356
scalar tiger_network.content_distribution 	repo-0_price 	0
scalar tiger_network.content_distribution 	repo-1_card 	6266
scalar tiger_network.content_distribution 	repo-1_price 	0
scalar tiger_network.content_distribution 	repo-2_card 	6375
scalar tiger_network.content_distribution 	repo-2_price 	0
scalar tiger_network.content_distribution 	repo-3_card 	6157
scalar tiger_network.content_distribution 	repo-3_price 	0
scalar tiger_network.content_distribution 	repo-4_card 	6158
scalar tiger_network.content_distribution 	repo-4_price 	0
scalar tiger_network.content_distribution 	repo-5_card 	6389
scalar tiger_network.content_distribution 	repo-5_price 	0
scalar tiger_network.content_distribution 	repo-6_card 	6323
scalar tiger_network.content_distribution 	repo-6_price 	0
scalar tiger_network.content_distribution 	repo-7_card 	6320
scalar tiger_network.content_distribution 	repo-7_price 	0
scalar tiger_network.content_distribution 	repo-8_card 	6094
scalar tiger_network.content_distribution 	repo-8_price 	0
scalar tiger_network.content_distribution 	repo-9_card 	6153
scalar tiger_network.content_distribution 	repo-9_price 	0
scalar tiger_network.content_distribution 	repo-10_card 	6307
scalar tiger_network.content_distribution 	repo-10_price 	0
scalar tiger_network.content_distribution 	repo-11_card 	6181
scalar tiger_network.content_distribution 	repo-11_price 	0
scalar tiger_network.content_distribution 	repo-12_card 	6224
scalar tiger_network.content_distribution 	repo-12_price 	0
scalar tiger_network.content_distribution 	repo-13_card 	6287
scalar tiger_network.content_distribution 	repo-13_price 	0
scalar tiger_network.content_distribution 	repo-14_card 	6172
scalar tiger_network.content_distribution 	repo-14_price 	0
scalar tiger_network.content_distribution 	repo-15_card 	6238
scalar tiger_network.content_distribution 	repo-15_price 	0
scalar tiger_network.statistics 	stabilization_time 	1514.7
scalar tiger_network.statistics 	p_hit 	0.17776060958413
scalar tiger_network.statistics 	interests 	32883.954545455
scalar tiger_network.statistics 	data 	20898.409090909
scalar tiger_network.statistics 	hdistance 	2.3143813607489
scalar tiger_network.statistics 	avg_time 	0.000682127286
scalar tiger_network.statistics 	downloads 	263682
scalar tiger_network.statistics 	total_cost 	0
scalar tiger_network.statistics 	total_replicas 	100000
scalar tiger_network.statistics 	inner_hit 	0.42953633543435
scalar tiger_network.node[0].core_layer 	interests[0] 	46243
scalar tiger_network.node[0].core_layer 	repo_load[0] 	9726
scalar tiger_network.node[0].core_layer 	data[0] 	30967
scalar tiger_network.node[0].core_layer 	repo_int[0] 	150421
scalar tiger_network.node[0].content_store 	p_hit[0] 	0.12001816491145
scalar tiger_network.node[0].content_store 	hits[0] 	5550
scalar tiger_network.node[0].content_store 	misses[0] 	40693
scalar tiger_network.node[0].content_store 	decision_yes[0] 	103
scalar tiger_network.node[0].content_store 	decision_no[0] 	40590
scalar tiger_network.node[0].content_store 	decision_ratio[0] 	0.0025311478632689
scalar tiger_network.node[1].core_layer 	interests[1] 	45276
scalar tiger_network.node[1].core_layer 	repo_load[1] 	9697
scalar tiger_network.node[1].core_layer 	data[1] 	30404
scalar tiger_network.node[1].content_store 	p_hit[1] 	0.11429896633978
scalar tiger_network.node[1].content_store 	hits[1] 	5175
scalar tiger_network.node[1].content_store 	misses[1] 	40101
scalar tiger_network.node[1].content_store 	decision_yes[1] 	87
scalar tiger_network.node[1].content_store 	decision_no[1] 	40014
scalar tiger_network.node[1].content_store 	decision_ratio[1] 	0.0021695219570584
scalar tiger_network.node[2].core_layer 	interests[2] 	56019
scalar tiger_network.node[2].core_layer 	repo_load[2] 	9654
scalar tiger_network.node[2].core_layer 	data[2] 	41013
scalar tiger_network.node[2].content_store 	p_hit[2] 	0.095539013548974
scalar tiger_network.node[2].content_store 	hits[2] 	5352
scalar tiger_network.node[2].content_store 	misses[2] 	50667
scalar tiger_network.node[2].content_store 	decision_yes[2] 	102
scalar tiger_network.node[2].content_store 	decision_no[2] 	50565
scalar tiger_network.node[2].content_store 	decision_ratio[2] 	0.0020131446503641
scalar tiger_network.node[3].core_layer 	interests[3] 	47754
scalar tiger_network.node[3].core_layer 	repo_load[3] 	9409
scalar tiger_network.node[3].core_layer 	data[3] 	33187
scalar tiger_network.node[3].content_store 	p_hit[3] 	0.10801189429158
scalar tiger_network.node[3].content_store 	hits[3] 	5158
scalar tiger_network.node[3].content_store 	misses[3] 	42596
scalar tiger_network.node[3].content_store 	decision_yes[3] 	109
scalar tiger_network.node[3].content_store 	decision_no[3] 	42487
scalar tiger_network.node[3].content_store 	decision_ratio[3] 	0.002558925720725
scalar tiger_network.node[4].core_layer 	interests[4] 	37914
scalar tiger_network.node[4].core_layer 	repo_load[4] 	9575
scalar tiger_network.node[4].core_layer 	data[4] 	23223
scalar tiger_network.node[4].content_store 	p_hit[4] 	0.13493696259957
scalar tiger_network.node[4].content_store 	hits[4] 	5116
scalar tiger_network.node[4].content_store 	misses[4] 	32798
scalar tiger_network.node[4].content_store 	decision_yes[4] 	82
scalar tiger_network.node[4].content_store 	decision_no[4] 	32716
scalar tiger_network.node[4].content_store 	decision_ratio[4] 	0.00250015244832
scalar tiger_network.node[5].core_layer 	interests[5] 	26510
scalar tiger_network.node[5].core_layer 	repo_load[5] 	9120
scalar tiger_network.node[5].core_layer 	data[5] 	12537
scalar tiger_network.node[5].content_store 	p_hit[5] 	0.18306299509619
scalar tiger_network.node[5].content_store 	hits[5] 	4853
scalar tiger_network.node[5].content_store 	misses[5] 	21657
scalar tiger_network.node[5].content_store 	decision_yes[5] 	79
scalar tiger_network.node[5].content_store 	decision_no[5] 	21578
scalar tiger_network.node[5].content_store 	decision_ratio[5] 	0.0036477813178187
scalar tiger_network.node[6].core_layer 	interests[6] 	33509
scalar tiger_network.node[6].core_layer 	repo_load[6] 	9199
scalar tiger_network.node[6].core_layer 	data[6] 	19480
scalar tiger_network.node[6].content_store 	p_hit[6] 	0.14414038019637
scalar tiger_network.node[6].content_store 	hits[6] 	4830
scalar tiger_network.node[6].content_store 	misses[6] 	28679
scalar tiger_network.node[6].content_store 	decision_yes[6] 	87
scalar tiger_network.node[6].content_store 	decision_no[6] 	28592
scalar tiger_network.node[6].content_store 	decision_ratio[6] 	0.0030335785766589
scalar tiger_network.node[7].core_layer 	interests[7] 	38929
scalar tiger_network.node[7].core_layer 	repo_load[7] 	9829
scalar tiger_network.node[7].core_layer 	data[7] 	24014
scalar tiger_network.node[7].content_store 	p_hit[7] 	0.13064810295666
scalar tiger_network.node[7].content_store 	hits[7] 	5086
scalar tiger_network.node[7].content_store 	misses[7] 	33843
scalar tiger_network.node[7].content_store 	decision_yes[7] 	85
scalar tiger_network.node[7].content_store 	decision_no[7] 	33758
scalar tiger_network.node[7].content_store 	decision_ratio[7] 	0.0025115976716012
scalar tiger_network.node[8].core_layer 	interests[8] 	44187
scalar tiger_network.node[8].core_layer 	repo_load[8] 	10219
scalar tiger_network.node[8].core_layer 	data[8] 	28687
scalar tiger_network.node[8].content_store 	p_hit[8] 	0.1195147894177
scalar tiger_network.node[8].content_store 	hits[8] 	5281
scalar tiger_network.node[8].content_store 	misses[8] 	38906
scalar tiger_network.node[8].content_store 	decision_yes[8] 	113
scalar tiger_network.node[8].content_store 	decision_no[8] 	38793
scalar tiger_network.node[8].content_store 	decision_ratio[8] 	0.0029044363337274
scalar tiger_network.node[9].core_layer 	interests[9] 	13992
scalar tiger_network.node[9].core_layer 	data[9] 	9038
scalar tiger_network.node[9].content_store 	p_hit[9] 	0.35405946255003
scalar tiger_network.node[9].content_store 	hits[9] 	4954
scalar tiger_network.node[9].content_store 	misses[9] 	9038
scalar tiger_network.node[9].content_store 	decision_yes[9] 	34
scalar tiger_network.node[9].content_store 	decision_no[9] 	9004
scalar tiger_network.node[9].content_store 	decision_ratio[9] 	0.0037618942243859
scalar tiger_network.node[10].core_layer 	interests[10] 	19087
scalar tiger_network.node[10].core_layer 	data[10] 	14043
scalar tiger_network.node[10].content_store 	p_hit[10] 	0.26426363493477
scalar tiger_network.node[10].content_store 	hits[10] 	5044
scalar tiger_network.node[10].content_store 	misses[10] 	14043
scalar tiger_network.node[10].content_store 	decision_yes[10] 	50
scalar tiger_network.node[10].content_store 	decision_no[10] 	13993
scalar tiger_network.node[10].content_store 	decision_ratio[10] 	0.0035604927721997
scalar tiger_network.node[11].core_layer 	interests[11] 	26758
scalar tiger_network.node[11].core_layer 	repo_load[11] 	9061
scalar tiger_network.node[11].core_layer 	data[11] 	12960
scalar tiger_network.node[11].content_store 	p_hit[11] 	0.17703116824875
scalar tiger_network.node[11].content_store 	hits[11] 	4737
scalar tiger_network.node[11].content_store 	misses[11] 	22021
scalar tiger_network.node[11].content_store 	decision_yes[11] 	103
scalar tiger_network.node[11].content_store 	decision_no[11] 	21918
scalar tiger_network.node[11].content_store 	decision_ratio[11] 	0.0046773534353572
scalar tiger_network.node[12].core_layer 	interests[12] 	41444
scalar tiger_network.node[12].core_layer 	repo_load[12] 	9907
scalar tiger_network.node[12].core_layer 	data[12] 	25980
scalar tiger_network.node[12].content_store 	p_hit[12] 	0.13408454782357
scalar tiger_network.node[12].content_store 	hits[12] 	5557
scalar tiger_network.node[12].content_store 	misses[12] 	35887
scalar tiger_network.node[12].content_store 	decision_yes[12] 	82
scalar tiger_network.node[12].content_store 	decision_no[12] 	35805
scalar tiger_network.node[12].content_store 	decision_ratio[12] 	0.0022849499818876
scalar tiger_network.node[13].core_layer 	interests[13] 	26804
scalar tiger_network.node[13].core_layer 	repo_load[13] 	9080
scalar tiger_network.node[13].core_layer 	data[13] 	12791
scalar tiger_network.node[13].content_store 	p_hit[13] 	0.18403969556783
scalar tiger_network.node[13].content_store 	hits[13] 	4933
scalar tiger_network.node[13].content_store 	misses[13] 	21871
scalar tiger_network.node[13].content_store 	decision_yes[13] 	82
scalar tiger_network.node[13].content_store 	decision_no[13] 	21789
scalar tiger_network.node[13].content_store 	decision_ratio[13] 	0.0037492570069956
scalar tiger_network.node[14].core_layer 	interests[14] 	23915
scalar tiger_network.node[14].core_layer 	repo_load[14] 	8645
scalar tiger_network.node[14].core_layer 	data[14] 	10582
scalar tiger_network.node[14].content_store 	p_hit[14] 	0.196027597742
scalar tiger_network.node[14].content_store 	hits[14] 	4688
scalar tiger_network.node[14].content_store 	misses[14] 	19227
scalar tiger_network.node[14].content_store 	decision_yes[14] 	81
scalar tiger_network.node[14].content_store 	decision_no[14] 	19146
scalar tiger_network.node[14].content_store 	decision_ratio[14] 	0.0042128257138399
scalar tiger_network.node[15].core_layer 	interests[15] 	17826
scalar tiger_network.node[15].core_layer 	data[15] 	12973
scalar tiger_network.node[15].content_store 	p_hit[15] 	0.27224279142825
scalar tiger_network.node[15].content_store 	hits[15] 	4853
scalar tiger_network.node[15].content_store 	misses[15] 	12973
scalar tiger_network.node[15].content_store 	decision_yes[15] 	46
scalar tiger_network.node[15].content_store 	decision_no[15] 	12927
scalar tiger_network.node[15].content_store 	decision_ratio[15] 	0.0035458259461959
scalar tiger_network.node[16].core_layer 	interests[16] 	21042
scalar tiger_network.node[16].core_layer 	data[16] 	15340
scalar tiger_network.node[16].content_store 	p_hit[16] 	0.27098184583215
scalar tiger_network.node[16].content_store 	hits[16] 	5702
scalar tiger_network.node[16].content_store 	misses[16] 	15340
scalar tiger_network.node[16].content_store 	decision_yes[16] 	47
scalar tiger_network.node[16].content_store 	decision_no[16] 	15293
scalar tiger_network.node[16].content_store 	decision_ratio[16] 	0.0030638852672751
scalar tiger_network.node[17].core_layer 	interests[17] 	34782
scalar tiger_network.node[17].core_layer 	data[17] 	29161
scalar tiger_network.node[17].content_store 	p_hit[17] 	0.16160657811512
scalar tiger_network.node[17].content_store 	hits[17] 	5621
scalar tiger_network.node[17].content_store 	misses[17] 	29161
scalar tiger_network.node[17].content_store 	decision_yes[17] 	87
scalar tiger_network.node[17].content_store 	decision_no[17] 	29074
scalar tiger_network.node[17].content_store 	decision_ratio[17] 	0.0029834367820034
scalar tiger_network.node[18].core_layer 	interests[18] 	46424
scalar tiger_network.node[18].core_layer 	repo_load[18] 	9075
scalar tiger_network.node[18].core_layer 	data[18] 	31682
scalar tiger_network.node[18].content_store 	p_hit[18] 	0.1220704807858
scalar tiger_network.node[18].content_store 	hits[18] 	5667
scalar tiger_network.node[18].content_store 	misses[18] 	40757
scalar tiger_network.node[18].content_store 	decision_yes[18] 	79
scalar tiger_network.node[18].content_store 	decision_no[18] 	40678
scalar tiger_network.node[18].content_store 	decision_ratio[18] 	0.0019383173442599
scalar tiger_network.node[19].core_layer 	interests[19] 	28644
scalar tiger_network.node[19].core_layer 	repo_load[19] 	9063
scalar tiger_network.node[19].core_layer 	data[19] 	14228
scalar tiger_network.node[19].content_store 	p_hit[19] 	0.1868803239771
scalar tiger_network.node[19].content_store 	hits[19] 	5353
scalar tiger_network.node[19].content_store 	misses[19] 	23291
scalar tiger_network.node[19].content_store 	decision_yes[19] 	87
scalar tiger_network.node[19].content_store 	decision_no[19] 	23204
scalar tiger_network.node[19].content_store 	decision_ratio[19] 	0.0037353484178438
scalar tiger_network.node[20].core_layer 	interests[20] 	27424
scalar tiger_network.node[20].core_layer 	repo_load[20] 	9162
scalar tiger_network.node[20].core_layer 	data[20] 	13534
scalar tiger_network.node[20].content_store 	p_hit[20] 	0.17240373395566
scalar tiger_network.node[20].content_store 	hits[20] 	4728
scalar tiger_network.node[20].content_store 	misses[20] 	22696
scalar tiger_network.node[20].content_store 	decision_yes[20] 	70
scalar tiger_network.node[20].content_store 	decision_no[20] 	22626
scalar tiger_network.node[20].content_store 	decision_ratio[20] 	0.0030842439196334
scalar tiger_network.node[21].core_layer 	interests[21] 	18964
scalar tiger_network.node[21].core_layer 	data[21] 	13941
scalar tiger_network.node[21].content_store 	p_hit[21] 	0.26487028053153
scalar tiger_network.node[21].content_store 	hits[21] 	5023
scalar tiger_network.node[21].content_store 	misses[21] 	13941
scalar tiger_network.node[21].content_store 	decision_yes[21] 	65
scalar tiger_network.node[21].content_store 	decision_no[21] 	13876
scalar tiger_network.node[21].content_store 	decision_ratio[21] 	0.0046625062764508
scalar tiger_network.client[0] 	hdistance[0] 	2.0937211061612
scalar tiger_network.client[0] 	downloads[0] 	11897
scalar tiger_network.client[0] 	avg_time[0] 	0.000520052012
scalar tiger_network.client[1] 	hdistance[1] 	2.2416522384368
scalar tiger_network.client[1] 	downloads[1] 	12129
scalar tiger_network.client[1] 	avg_time[1] 	0.000742447594
scalar tiger_network.client[2] 	hdistance[2] 	2.100157271749
scalar tiger_network.client[2] 	downloads[2] 	12081
scalar tiger_network.client[2] 	avg_time[2] 	0.000834564822
scalar tiger_network.client[3] 	hdistance[3] 	2.2549132472659
scalar tiger_network.client[3] 	downloads[3] 	12161
scalar tiger_network.client[3] 	avg_time[3] 	0.000936428637
scalar tiger_network.client[4] 	hdistance[4] 	2.2631015161503
scalar tiger_network.client[4] 	downloads[4] 	12136
scalar tiger_network.client[4] 	avg_time[4] 	0.000915797565
scalar tiger_network.client[5] 	hdistance[5] 	2.3966241182399
scalar tiger_network.client[5] 	downloads[5] 	11908
scalar tiger_network.client[5] 	avg_time[5] 	0.000959132072
scalar tiger_network.client[6] 	hdistance[6] 	2.3630357445367
scalar tiger_network.client[6] 	downloads[6] 	11806
scalar tiger_network.client[6] 	avg_time[6] 	0.000706294689
scalar tiger_network.client[7] 	hdistance[7] 	2.3177648040033
scalar tiger_network.client[7] 	downloads[7] 	11990
scalar tiger_network.client[7] 	avg_time[7] 	0.000703591184
scalar tiger_network.client[8] 	hdistance[8] 	2.2797580117724
scalar tiger_network.client[8] 	downloads[8] 	12232
scalar tiger_network.client[8] 	avg_time[8] 	0.000716536663
scalar tiger_network.client[9] 	hdistance[9] 	2.6512407780013
scalar tiger_network.client[9] 	downloads[9] 	11928
scalar tiger_network.client[9] 	avg_time[9] 	0.000697544666
scalar tiger_network.client[10] 	hdistance[10] 	2.5367492650147
scalar tiger_network.client[10] 	downloads[10] 	11905
scalar tiger_network.client[10] 	avg_time[10] 	0.000739227269
scalar tiger_network.client[11] 	hdistance[11] 	2.3289117945252
scalar tiger_network.client[11] 	downloads[11] 	11836
scalar tiger_network.client[11] 	avg_time[11] 	0.000460755741
scalar tiger_network.client[12] 	hdistance[12] 	2.1090771047747
scalar tiger_network.client[12] 	downloads[12] 	11854
scalar tiger_network.client[12] 	avg_time[12] 	0.00068819713
scalar tiger_network.client[13] 	hdistance[13] 	2.2897670549085
scalar tiger_network.client[13] 	downloads[13] 	12020
scalar tiger_network.client[13] 	avg_time[13] 	0.000659748089
scalar tiger_network.client[14] 	hdistance[14] 	2.4829762497924
scalar tiger_network.client[14] 	downloads[14] 	12042
scalar tiger_network.client[14] 	avg_time[14] 	0.000597516637
scalar tiger_network.client[15] 	hdistance[15] 	2.4511753306934
scalar tiger_network.client[15] 	downloads[15] 	11869
scalar tiger_network.client[15] 	avg_time[15] 	0.000608904103
scalar tiger_network.client[16] 	hdistance[16] 	2.3312262958281
scalar tiger_network.client[16] 	downloads[16] 	11865
scalar tiger_network.client[16] 	avg_time[16] 	0.000601396451
scalar tiger_network.client[17] 	hdistance[17] 	2.2070915998312
scalar tiger_network.client[17] 	downloads[17] 	11845
scalar tiger_network.client[17] 	avg_time[17] 	0.000726015091
scalar tiger_network.client[18] 	hdistance[18] 	2.1121879106439
scalar tiger_network.client[18] 	downloads[18] 	12176
scalar tiger_network.client[18] 	avg_time[18] 	0.000540252077
scalar tiger_network.client[19] 	hdistance[19] 	2.2511511092507
scalar tiger_network.client[19] 	downloads[19] 	11945
scalar tiger_network.client[19] 	avg_time[19] 	0.0004408856
scalar tiger_network.client[20] 	hdistance[20] 	2.3851004792735
scalar tiger_network.client[20] 	downloads[20] 	11893
scalar tiger_network.client[20] 	avg_time[20] 	0.000600056219
scalar tiger_network.client[21] 	hdistance[21] 	2.4690069056231
scalar tiger_network.client[21] 	downloads[21] 	12164
scalar tiger_network.client[21] 	avg_time[21] 	0.000611455995
