version 2
run General-87-20160826-12:36:13-19693
attr D ffc0.2
attr F nrr
attr R lru
attr a 0.9
attr configname General
attr datetime 20160826-12:36:13
attr experiment General
attr inifile hw5115/scenario_C/omnetp.ini
attr iterationvars "$net=tiger, $rep=10, $a=0.9, $F=nrr, $D=ffc0.2, $R=lru, $window=60, $variance=0.05, $mytime=600"
attr iterationvars2 "$net=tiger, $rep=10, $a=0.9, $F=nrr, $D=ffc0.2, $R=lru, $window=60, $variance=0.05, $mytime=600, $repetition=0"
attr measurement "$net=tiger, $rep=10, $a=0.9, $F=nrr, $D=ffc0.2, $R=lru, $window=60, $variance=0.05, $mytime=600"
attr mytime 600
attr net tiger
attr network networks.${net=tiger}_network
attr processid 19693
attr rep 10
attr repetition 0
attr replication #0
attr resultdir results
attr runnumber 87
attr seedset 10
attr variance 0.05
attr window 60

scalar . 	a 	0.9
scalar . 	mytime 	600
scalar . 	rep 	10
scalar . 	variance 	0.05
scalar . 	window 	60
scalar tiger_network.content_distribution 	repo-0 	18
scalar tiger_network.content_distribution 	repo-1 	16
scalar tiger_network.content_distribution 	repo-2 	2
scalar tiger_network.content_distribution 	repo-3 	6
scalar tiger_network.content_distribution 	repo-4 	10
scalar tiger_network.content_distribution 	repo-5 	14
scalar tiger_network.content_distribution 	repo-6 	17
scalar tiger_network.content_distribution 	repo-7 	11
scalar tiger_network.content_distribution 	repo-8 	20
scalar tiger_network.content_distribution 	repo-9 	12
scalar tiger_network.content_distribution 	repo-10 	3
scalar tiger_network.content_distribution 	repo-11 	7
scalar tiger_network.content_distribution 	repo-12 	15
scalar tiger_network.content_distribution 	repo-13 	1
scalar tiger_network.content_distribution 	repo-14 	9
scalar tiger_network.content_distribution 	repo-15 	0
scalar tiger_network.content_distribution 	client-0 	21
scalar tiger_network.content_distribution 	client-1 	9
scalar tiger_network.content_distribution 	client-2 	6
scalar tiger_network.content_distribution 	client-3 	2
scalar tiger_network.content_distribution 	client-4 	14
scalar tiger_network.content_distribution 	client-5 	8
scalar tiger_network.content_distribution 	client-6 	17
scalar tiger_network.content_distribution 	client-7 	0
scalar tiger_network.content_distribution 	client-8 	19
scalar tiger_network.content_distribution 	client-9 	10
scalar tiger_network.content_distribution 	client-10 	13
scalar tiger_network.content_distribution 	client-11 	1
scalar tiger_network.content_distribution 	client-12 	3
scalar tiger_network.content_distribution 	client-13 	18
scalar tiger_network.content_distribution 	client-14 	15
scalar tiger_network.content_distribution 	client-15 	16
scalar tiger_network.content_distribution 	client-16 	12
scalar tiger_network.content_distribution 	client-17 	11
scalar tiger_network.content_distribution 	client-18 	7
scalar tiger_network.content_distribution 	client-19 	4
scalar tiger_network.content_distribution 	client-20 	5
scalar tiger_network.content_distribution 	client-21 	20
scalar tiger_network.content_distribution 	repo-0_card 	6240
scalar tiger_network.content_distribution 	repo-0_price 	0
scalar tiger_network.content_distribution 	repo-1_card 	6299
scalar tiger_network.content_distribution 	repo-1_price 	0
scalar tiger_network.content_distribution 	repo-2_card 	6352
scalar tiger_network.content_distribution 	repo-2_price 	0
scalar tiger_network.content_distribution 	repo-3_card 	6070
scalar tiger_network.content_distribution 	repo-3_price 	0
scalar tiger_network.content_distribution 	repo-4_card 	6322
scalar tiger_network.content_distribution 	repo-4_price 	0
scalar tiger_network.content_distribution 	repo-5_card 	6183
scalar tiger_network.content_distribution 	repo-5_price 	0
scalar tiger_network.content_distribution 	repo-6_card 	6236
scalar tiger_network.content_distribution 	repo-6_price 	0
scalar tiger_network.content_distribution 	repo-7_card 	6222
scalar tiger_network.content_distribution 	repo-7_price 	0
scalar tiger_network.content_distribution 	repo-8_card 	6294
scalar tiger_network.content_distribution 	repo-8_price 	0
scalar tiger_network.content_distribution 	repo-9_card 	6270
scalar tiger_network.content_distribution 	repo-9_price 	0
scalar tiger_network.content_distribution 	repo-10_card 	6197
scalar tiger_network.content_distribution 	repo-10_price 	0
scalar tiger_network.content_distribution 	repo-11_card 	6132
scalar tiger_network.content_distribution 	repo-11_price 	0
scalar tiger_network.content_distribution 	repo-12_card 	6287
scalar tiger_network.content_distribution 	repo-12_price 	0
scalar tiger_network.content_distribution 	repo-13_card 	6301
scalar tiger_network.content_distribution 	repo-13_price 	0
scalar tiger_network.content_distribution 	repo-14_card 	6334
scalar tiger_network.content_distribution 	repo-14_price 	0
scalar tiger_network.content_distribution 	repo-15_card 	6261
scalar tiger_network.content_distribution 	repo-15_price 	0
scalar tiger_network.statistics 	stabilization_time 	1403.8
scalar tiger_network.statistics 	p_hit 	0.17607016616874
scalar tiger_network.statistics 	interests 	33112.772727273
scalar tiger_network.statistics 	data 	21132.818181818
scalar tiger_network.statistics 	hdistance 	2.3283401607938
scalar tiger_network.statistics 	avg_time 	0.000660094412
scalar tiger_network.statistics 	downloads 	263559
scalar tiger_network.statistics 	total_cost 	0
scalar tiger_network.statistics 	total_replicas 	100000
scalar tiger_network.statistics 	inner_hit 	0.43548882792847
scalar tiger_network.node[0].core_layer 	interests[0] 	44012
scalar tiger_network.node[0].core_layer 	repo_load[0] 	9471
scalar tiger_network.node[0].core_layer 	data[0] 	29183
scalar tiger_network.node[0].core_layer 	repo_int[0] 	148782
scalar tiger_network.node[0].content_store 	p_hit[0] 	0.12173952558393
scalar tiger_network.node[0].content_store 	hits[0] 	5358
scalar tiger_network.node[0].content_store 	misses[0] 	38654
scalar tiger_network.node[0].content_store 	decision_yes[0] 	86
scalar tiger_network.node[0].content_store 	decision_no[0] 	38568
scalar tiger_network.node[0].content_store 	decision_ratio[0] 	0.0022248667666994
scalar tiger_network.node[1].core_layer 	interests[1] 	46433
scalar tiger_network.node[1].core_layer 	repo_load[1] 	9266
scalar tiger_network.node[1].core_layer 	data[1] 	32064
scalar tiger_network.node[1].content_store 	p_hit[1] 	0.10990028643422
scalar tiger_network.node[1].content_store 	hits[1] 	5103
scalar tiger_network.node[1].content_store 	misses[1] 	41330
scalar tiger_network.node[1].content_store 	decision_yes[1] 	80
scalar tiger_network.node[1].content_store 	decision_no[1] 	41250
scalar tiger_network.node[1].content_store 	decision_ratio[1] 	0.0019356399709654
scalar tiger_network.node[2].core_layer 	interests[2] 	54317
scalar tiger_network.node[2].core_layer 	repo_load[2] 	9584
scalar tiger_network.node[2].core_layer 	data[2] 	39103
scalar tiger_network.node[2].content_store 	p_hit[2] 	0.1036507907285
scalar tiger_network.node[2].content_store 	hits[2] 	5630
scalar tiger_network.node[2].content_store 	misses[2] 	48687
scalar tiger_network.node[2].content_store 	decision_yes[2] 	86
scalar tiger_network.node[2].content_store 	decision_no[2] 	48601
scalar tiger_network.node[2].content_store 	decision_ratio[2] 	0.0017663852773841
scalar tiger_network.node[3].core_layer 	interests[3] 	49688
scalar tiger_network.node[3].core_layer 	repo_load[3] 	9586
scalar tiger_network.node[3].core_layer 	data[3] 	34746
scalar tiger_network.node[3].content_store 	p_hit[3] 	0.10777250040251
scalar tiger_network.node[3].content_store 	hits[3] 	5355
scalar tiger_network.node[3].content_store 	misses[3] 	44333
scalar tiger_network.node[3].content_store 	decision_yes[3] 	106
scalar tiger_network.node[3].content_store 	decision_no[3] 	44226
scalar tiger_network.node[3].content_store 	decision_ratio[3] 	0.0023910493548678
scalar tiger_network.node[4].core_layer 	interests[4] 	30078
scalar tiger_network.node[4].core_layer 	data[4] 	24864
scalar tiger_network.node[4].content_store 	p_hit[4] 	0.17334929184121
scalar tiger_network.node[4].content_store 	hits[4] 	5214
scalar tiger_network.node[4].content_store 	misses[4] 	24864
scalar tiger_network.node[4].content_store 	decision_yes[4] 	60
scalar tiger_network.node[4].content_store 	decision_no[4] 	24804
scalar tiger_network.node[4].content_store 	decision_ratio[4] 	0.0024131274131274
scalar tiger_network.node[5].core_layer 	interests[5] 	17261
scalar tiger_network.node[5].core_layer 	data[5] 	11815
scalar tiger_network.node[5].content_store 	p_hit[5] 	0.31550895081397
scalar tiger_network.node[5].content_store 	hits[5] 	5446
scalar tiger_network.node[5].content_store 	misses[5] 	11815
scalar tiger_network.node[5].content_store 	decision_yes[5] 	37
scalar tiger_network.node[5].content_store 	decision_no[5] 	11778
scalar tiger_network.node[5].content_store 	decision_ratio[5] 	0.0031316123571731
scalar tiger_network.node[6].core_layer 	interests[6] 	34989
scalar tiger_network.node[6].core_layer 	repo_load[6] 	9097
scalar tiger_network.node[6].core_layer 	data[6] 	20820
scalar tiger_network.node[6].content_store 	p_hit[6] 	0.14495984452256
scalar tiger_network.node[6].content_store 	hits[6] 	5072
scalar tiger_network.node[6].content_store 	misses[6] 	29917
scalar tiger_network.node[6].content_store 	decision_yes[6] 	78
scalar tiger_network.node[6].content_store 	decision_no[6] 	29839
scalar tiger_network.node[6].content_store 	decision_ratio[6] 	0.0026072132901026
scalar tiger_network.node[7].core_layer 	interests[7] 	39909
scalar tiger_network.node[7].core_layer 	repo_load[7] 	9492
scalar tiger_network.node[7].core_layer 	data[7] 	25527
scalar tiger_network.node[7].content_store 	p_hit[7] 	0.12252875291288
scalar tiger_network.node[7].content_store 	hits[7] 	4890
scalar tiger_network.node[7].content_store 	misses[7] 	35019
scalar tiger_network.node[7].content_store 	decision_yes[7] 	87
scalar tiger_network.node[7].content_store 	decision_no[7] 	34932
scalar tiger_network.node[7].content_store 	decision_ratio[7] 	0.0024843656300865
scalar tiger_network.node[8].core_layer 	interests[8] 	40226
scalar tiger_network.node[8].core_layer 	data[8] 	34670
scalar tiger_network.node[8].content_store 	p_hit[8] 	0.1381196241237
scalar tiger_network.node[8].content_store 	hits[8] 	5556
scalar tiger_network.node[8].content_store 	misses[8] 	34670
scalar tiger_network.node[8].content_store 	decision_yes[8] 	89
scalar tiger_network.node[8].content_store 	decision_no[8] 	34581
scalar tiger_network.node[8].content_store 	decision_ratio[8] 	0.0025670608595327
scalar tiger_network.node[9].core_layer 	interests[9] 	23533
scalar tiger_network.node[9].core_layer 	repo_load[9] 	9200
scalar tiger_network.node[9].core_layer 	data[9] 	9708
scalar tiger_network.node[9].content_store 	p_hit[9] 	0.19653252878936
scalar tiger_network.node[9].content_store 	hits[9] 	4625
scalar tiger_network.node[9].content_store 	misses[9] 	18908
scalar tiger_network.node[9].content_store 	decision_yes[9] 	77
scalar tiger_network.node[9].content_store 	decision_no[9] 	18831
scalar tiger_network.node[9].content_store 	decision_ratio[9] 	0.0040723503279035
scalar tiger_network.node[10].core_layer 	interests[10] 	28323
scalar tiger_network.node[10].core_layer 	repo_load[10] 	8821
scalar tiger_network.node[10].core_layer 	data[10] 	14738
scalar tiger_network.node[10].content_store 	p_hit[10] 	0.16820252091939
scalar tiger_network.node[10].content_store 	hits[10] 	4764
scalar tiger_network.node[10].content_store 	misses[10] 	23559
scalar tiger_network.node[10].content_store 	decision_yes[10] 	75
scalar tiger_network.node[10].content_store 	decision_no[10] 	23484
scalar tiger_network.node[10].content_store 	decision_ratio[10] 	0.0031834967528333
scalar tiger_network.node[11].core_layer 	interests[11] 	29517
scalar tiger_network.node[11].core_layer 	repo_load[11] 	8874
scalar tiger_network.node[11].core_layer 	data[11] 	15397
scalar tiger_network.node[11].content_store 	p_hit[11] 	0.17772808889792
scalar tiger_network.node[11].content_store 	hits[11] 	5246
scalar tiger_network.node[11].content_store 	misses[11] 	24271
scalar tiger_network.node[11].content_store 	decision_yes[11] 	86
scalar tiger_network.node[11].content_store 	decision_no[11] 	24185
scalar tiger_network.node[11].content_store 	decision_ratio[11] 	0.0035433233076511
scalar tiger_network.node[12].core_layer 	interests[12] 	37705
scalar tiger_network.node[12].core_layer 	repo_load[12] 	9418
scalar tiger_network.node[12].core_layer 	data[12] 	22926
scalar tiger_network.node[12].content_store 	p_hit[12] 	0.14218273438536
scalar tiger_network.node[12].content_store 	hits[12] 	5361
scalar tiger_network.node[12].content_store 	misses[12] 	32344
scalar tiger_network.node[12].content_store 	decision_yes[12] 	95
scalar tiger_network.node[12].content_store 	decision_no[12] 	32249
scalar tiger_network.node[12].content_store 	decision_ratio[12] 	0.0029371753648281
scalar tiger_network.node[13].core_layer 	interests[13] 	18112
scalar tiger_network.node[13].core_layer 	data[13] 	12886
scalar tiger_network.node[13].content_store 	p_hit[13] 	0.28853798586572
scalar tiger_network.node[13].content_store 	hits[13] 	5226
scalar tiger_network.node[13].content_store 	misses[13] 	12886
scalar tiger_network.node[13].content_store 	decision_yes[13] 	44
scalar tiger_network.node[13].content_store 	decision_no[13] 	12842
scalar tiger_network.node[13].content_store 	decision_ratio[13] 	0.0034145584355114
scalar tiger_network.node[14].core_layer 	interests[14] 	24082
scalar tiger_network.node[14].core_layer 	repo_load[14] 	9172
scalar tiger_network.node[14].core_layer 	data[14] 	10155
scalar tiger_network.node[14].content_store 	p_hit[14] 	0.19745037787559
scalar tiger_network.node[14].content_store 	hits[14] 	4755
scalar tiger_network.node[14].content_store 	misses[14] 	19327
scalar tiger_network.node[14].content_store 	decision_yes[14] 	86
scalar tiger_network.node[14].content_store 	decision_no[14] 	19241
scalar tiger_network.node[14].content_store 	decision_ratio[14] 	0.0044497335333989
scalar tiger_network.node[15].core_layer 	interests[15] 	26683
scalar tiger_network.node[15].core_layer 	repo_load[15] 	9204
scalar tiger_network.node[15].core_layer 	data[15] 	12761
scalar tiger_network.node[15].content_store 	p_hit[15] 	0.17681669977139
scalar tiger_network.node[15].content_store 	hits[15] 	4718
scalar tiger_network.node[15].content_store 	misses[15] 	21965
scalar tiger_network.node[15].content_store 	decision_yes[15] 	76
scalar tiger_network.node[15].content_store 	decision_no[15] 	21889
scalar tiger_network.node[15].content_store 	decision_ratio[15] 	0.0034600500796722
scalar tiger_network.node[16].core_layer 	interests[16] 	31863
scalar tiger_network.node[16].core_layer 	repo_load[16] 	9109
scalar tiger_network.node[16].core_layer 	data[16] 	17359
scalar tiger_network.node[16].content_store 	p_hit[16] 	0.16931864545084
scalar tiger_network.node[16].content_store 	hits[16] 	5395
scalar tiger_network.node[16].content_store 	misses[16] 	26468
scalar tiger_network.node[16].content_store 	decision_yes[16] 	85
scalar tiger_network.node[16].content_store 	decision_no[16] 	26383
scalar tiger_network.node[16].content_store 	decision_ratio[16] 	0.0032114251171226
scalar tiger_network.node[17].core_layer 	interests[17] 	40553
scalar tiger_network.node[17].core_layer 	repo_load[17] 	9834
scalar tiger_network.node[17].core_layer 	data[17] 	25094
scalar tiger_network.node[17].content_store 	p_hit[17] 	0.13870737060144
scalar tiger_network.node[17].content_store 	hits[17] 	5625
scalar tiger_network.node[17].content_store 	misses[17] 	34928
scalar tiger_network.node[17].content_store 	decision_yes[17] 	98
scalar tiger_network.node[17].content_store 	decision_no[17] 	34830
scalar tiger_network.node[17].content_store 	decision_ratio[17] 	0.0028057718735685
scalar tiger_network.node[18].core_layer 	interests[18] 	46008
scalar tiger_network.node[18].core_layer 	repo_load[18] 	9571
scalar tiger_network.node[18].core_layer 	data[18] 	30998
scalar tiger_network.node[18].content_store 	p_hit[18] 	0.11821857068336
scalar tiger_network.node[18].content_store 	hits[18] 	5439
scalar tiger_network.node[18].content_store 	misses[18] 	40569
scalar tiger_network.node[18].content_store 	decision_yes[18] 	100
scalar tiger_network.node[18].content_store 	decision_no[18] 	40469
scalar tiger_network.node[18].content_store 	decision_ratio[18] 	0.0024649362813971
scalar tiger_network.node[19].core_layer 	interests[19] 	20307
scalar tiger_network.node[19].core_layer 	data[19] 	14557
scalar tiger_network.node[19].content_store 	p_hit[19] 	0.28315359235732
scalar tiger_network.node[19].content_store 	hits[19] 	5750
scalar tiger_network.node[19].content_store 	misses[19] 	14557
scalar tiger_network.node[19].content_store 	decision_yes[19] 	68
scalar tiger_network.node[19].content_store 	decision_no[19] 	14489
scalar tiger_network.node[19].content_store 	decision_ratio[19] 	0.0046712921618465
scalar tiger_network.node[20].core_layer 	interests[20] 	26937
scalar tiger_network.node[20].core_layer 	repo_load[20] 	9083
scalar tiger_network.node[20].core_layer 	data[20] 	12913
scalar tiger_network.node[20].content_store 	p_hit[20] 	0.18342799866355
scalar tiger_network.node[20].content_store 	hits[20] 	4941
scalar tiger_network.node[20].content_store 	misses[20] 	21996
scalar tiger_network.node[20].content_store 	decision_yes[20] 	77
scalar tiger_network.node[20].content_store 	decision_no[20] 	21919
scalar tiger_network.node[20].content_store 	decision_ratio[20] 	0.0035006364793599
scalar tiger_network.node[21].core_layer 	interests[21] 	17945
scalar tiger_network.node[21].core_layer 	data[21] 	12638
scalar tiger_network.node[21].content_store 	p_hit[21] 	0.29573697408749
scalar tiger_network.node[21].content_store 	hits[21] 	5307
scalar tiger_network.node[21].content_store 	misses[21] 	12638
scalar tiger_network.node[21].content_store 	decision_yes[21] 	56
scalar tiger_network.node[21].content_store 	decision_no[21] 	12582
scalar tiger_network.node[21].content_store 	decision_ratio[21] 	0.0044310808672258
scalar tiger_network.client[0] 	hdistance[0] 	2.1827479252242
scalar tiger_network.client[0] 	downloads[0] 	11929
scalar tiger_network.client[0] 	avg_time[0] 	0.000535061298
scalar tiger_network.client[1] 	hdistance[1] 	2.3004913588614
scalar tiger_network.client[1] 	downloads[1] 	11804
scalar tiger_network.client[1] 	avg_time[1] 	0.000775142928
scalar tiger_network.client[2] 	hdistance[2] 	2.125862803579
scalar tiger_network.client[2] 	downloads[2] 	11735
scalar tiger_network.client[2] 	avg_time[2] 	0.000836159683
scalar tiger_network.client[3] 	hdistance[3] 	2.2175818723123
scalar tiger_network.client[3] 	downloads[3] 	12092
scalar tiger_network.client[3] 	avg_time[3] 	0.000918689503
scalar tiger_network.client[4] 	hdistance[4] 	2.3328104359313
scalar tiger_network.client[4] 	downloads[4] 	12112
scalar tiger_network.client[4] 	avg_time[4] 	0.000986270163
scalar tiger_network.client[5] 	hdistance[5] 	2.3819945287242
scalar tiger_network.client[5] 	downloads[5] 	12063
scalar tiger_network.client[5] 	avg_time[5] 	0.000955326657
scalar tiger_network.client[6] 	hdistance[6] 	2.2893602916805
scalar tiger_network.client[6] 	downloads[6] 	12068
scalar tiger_network.client[6] 	avg_time[6] 	0.000702343333
scalar tiger_network.client[7] 	hdistance[7] 	2.340121353171
scalar tiger_network.client[7] 	downloads[7] 	12031
scalar tiger_network.client[7] 	avg_time[7] 	0.000663426652
scalar tiger_network.client[8] 	hdistance[8] 	2.2860951428809
scalar tiger_network.client[8] 	downloads[8] 	12003
scalar tiger_network.client[8] 	avg_time[8] 	0.000703631784
scalar tiger_network.client[9] 	hdistance[9] 	2.6055221888555
scalar tiger_network.client[9] 	downloads[9] 	11988
scalar tiger_network.client[9] 	avg_time[9] 	0.000659224375
scalar tiger_network.client[10] 	hdistance[10] 	2.4328859060403
scalar tiger_network.client[10] 	downloads[10] 	11920
scalar tiger_network.client[10] 	avg_time[10] 	0.000642570705
scalar tiger_network.client[11] 	hdistance[11] 	2.2785084068587
scalar tiger_network.client[11] 	downloads[11] 	12014
scalar tiger_network.client[11] 	avg_time[11] 	0.00039901431
scalar tiger_network.client[12] 	hdistance[12] 	2.2152586278934
scalar tiger_network.client[12] 	downloads[12] 	11967
scalar tiger_network.client[12] 	avg_time[12] 	0.000634508556
scalar tiger_network.client[13] 	hdistance[13] 	2.3805765556202
scalar tiger_network.client[13] 	downloads[13] 	12037
scalar tiger_network.client[13] 	avg_time[13] 	0.000638966468
scalar tiger_network.client[14] 	hdistance[14] 	2.5266915732669
scalar tiger_network.client[14] 	downloads[14] 	12045
scalar tiger_network.client[14] 	avg_time[14] 	0.000603294767
scalar tiger_network.client[15] 	hdistance[15] 	2.4081020255064
scalar tiger_network.client[15] 	downloads[15] 	11997
scalar tiger_network.client[15] 	avg_time[15] 	0.000607323518
scalar tiger_network.client[16] 	hdistance[16] 	2.3147195486226
scalar tiger_network.client[16] 	downloads[16] 	12052
scalar tiger_network.client[16] 	avg_time[16] 	0.000650749724
scalar tiger_network.client[17] 	hdistance[17] 	2.16239244137
scalar tiger_network.client[17] 	downloads[17] 	11854
scalar tiger_network.client[17] 	avg_time[17] 	0.000598887202
scalar tiger_network.client[18] 	hdistance[18] 	2.1507923269391
scalar tiger_network.client[18] 	downloads[18] 	11990
scalar tiger_network.client[18] 	avg_time[18] 	0.000455284764
scalar tiger_network.client[19] 	hdistance[19] 	2.302927274235
scalar tiger_network.client[19] 	downloads[19] 	12059
scalar tiger_network.client[19] 	avg_time[19] 	0.000348369487
scalar tiger_network.client[20] 	hdistance[20] 	2.4902306079665
scalar tiger_network.client[20] 	downloads[20] 	11925
scalar tiger_network.client[20] 	avg_time[20] 	0.000631718942
scalar tiger_network.client[21] 	hdistance[21] 	2.4978103419235
scalar tiger_network.client[21] 	downloads[21] 	11874
scalar tiger_network.client[21] 	avg_time[21] 	0.000576112257
