version 2
run General-15-20160826-10:04:55-19693
attr D ffc0.2
attr F nrr
attr R lru
attr a 0.9
attr configname General
attr datetime 20160826-10:04:55
attr experiment General
attr inifile hw5115/scenario_C/omnetp.ini
attr iterationvars "$net=tiger, $rep=2, $a=0.9, $F=nrr, $D=ffc0.2, $R=lru, $window=60, $variance=0.05, $mytime=600"
attr iterationvars2 "$net=tiger, $rep=2, $a=0.9, $F=nrr, $D=ffc0.2, $R=lru, $window=60, $variance=0.05, $mytime=600, $repetition=0"
attr measurement "$net=tiger, $rep=2, $a=0.9, $F=nrr, $D=ffc0.2, $R=lru, $window=60, $variance=0.05, $mytime=600"
attr mytime 600
attr net tiger
attr network networks.${net=tiger}_network
attr processid 19693
attr rep 2
attr repetition 0
attr replication #0
attr resultdir results
attr runnumber 15
attr seedset 2
attr variance 0.05
attr window 60

scalar . 	a 	0.9
scalar . 	mytime 	600
scalar . 	rep 	2
scalar . 	variance 	0.05
scalar . 	window 	60
scalar tiger_network.content_distribution 	repo-0 	15
scalar tiger_network.content_distribution 	repo-1 	4
scalar tiger_network.content_distribution 	repo-2 	3
scalar tiger_network.content_distribution 	repo-3 	19
scalar tiger_network.content_distribution 	repo-4 	7
scalar tiger_network.content_distribution 	repo-5 	14
scalar tiger_network.content_distribution 	repo-6 	8
scalar tiger_network.content_distribution 	repo-7 	10
scalar tiger_network.content_distribution 	repo-8 	6
scalar tiger_network.content_distribution 	repo-9 	16
scalar tiger_network.content_distribution 	repo-10 	12
scalar tiger_network.content_distribution 	repo-11 	0
scalar tiger_network.content_distribution 	repo-12 	11
scalar tiger_network.content_distribution 	repo-13 	5
scalar tiger_network.content_distribution 	repo-14 	21
scalar tiger_network.content_distribution 	repo-15 	2
scalar tiger_network.content_distribution 	client-0 	21
scalar tiger_network.content_distribution 	client-1 	9
scalar tiger_network.content_distribution 	client-2 	6
scalar tiger_network.content_distribution 	client-3 	2
scalar tiger_network.content_distribution 	client-4 	14
scalar tiger_network.content_distribution 	client-5 	8
scalar tiger_network.content_distribution 	client-6 	17
scalar tiger_network.content_distribution 	client-7 	0
scalar tiger_network.content_distribution 	client-8 	19
scalar tiger_network.content_distribution 	client-9 	10
scalar tiger_network.content_distribution 	client-10 	13
scalar tiger_network.content_distribution 	client-11 	1
scalar tiger_network.content_distribution 	client-12 	3
scalar tiger_network.content_distribution 	client-13 	18
scalar tiger_network.content_distribution 	client-14 	15
scalar tiger_network.content_distribution 	client-15 	16
scalar tiger_network.content_distribution 	client-16 	12
scalar tiger_network.content_distribution 	client-17 	11
scalar tiger_network.content_distribution 	client-18 	7
scalar tiger_network.content_distribution 	client-19 	4
scalar tiger_network.content_distribution 	client-20 	5
scalar tiger_network.content_distribution 	client-21 	20
scalar tiger_network.content_distribution 	repo-0_card 	6236
scalar tiger_network.content_distribution 	repo-0_price 	0
scalar tiger_network.content_distribution 	repo-1_card 	6125
scalar tiger_network.content_distribution 	repo-1_price 	0
scalar tiger_network.content_distribution 	repo-2_card 	6217
scalar tiger_network.content_distribution 	repo-2_price 	0
scalar tiger_network.content_distribution 	repo-3_card 	6260
scalar tiger_network.content_distribution 	repo-3_price 	0
scalar tiger_network.content_distribution 	repo-4_card 	6179
scalar tiger_network.content_distribution 	repo-4_price 	0
scalar tiger_network.content_distribution 	repo-5_card 	6256
scalar tiger_network.content_distribution 	repo-5_price 	0
scalar tiger_network.content_distribution 	repo-6_card 	6348
scalar tiger_network.content_distribution 	repo-6_price 	0
scalar tiger_network.content_distribution 	repo-7_card 	6285
scalar tiger_network.content_distribution 	repo-7_price 	0
scalar tiger_network.content_distribution 	repo-8_card 	6391
scalar tiger_network.content_distribution 	repo-8_price 	0
scalar tiger_network.content_distribution 	repo-9_card 	6215
scalar tiger_network.content_distribution 	repo-9_price 	0
scalar tiger_network.content_distribution 	repo-10_card 	6263
scalar tiger_network.content_distribution 	repo-10_price 	0
scalar tiger_network.content_distribution 	repo-11_card 	6215
scalar tiger_network.content_distribution 	repo-11_price 	0
scalar tiger_network.content_distribution 	repo-12_card 	6288
scalar tiger_network.content_distribution 	repo-12_price 	0
scalar tiger_network.content_distribution 	repo-13_card 	6209
scalar tiger_network.content_distribution 	repo-13_price 	0
scalar tiger_network.content_distribution 	repo-14_card 	6401
scalar tiger_network.content_distribution 	repo-14_price 	0
scalar tiger_network.content_distribution 	repo-15_card 	6112
scalar tiger_network.content_distribution 	repo-15_price 	0
scalar tiger_network.statistics 	stabilization_time 	1405.5
scalar tiger_network.statistics 	p_hit 	0.17271210516307
scalar tiger_network.statistics 	interests 	33320
scalar tiger_network.statistics 	data 	21302.545454545
scalar tiger_network.statistics 	hdistance 	2.3384182921813
scalar tiger_network.statistics 	avg_time 	0.000687661213
scalar tiger_network.statistics 	downloads 	264384
scalar tiger_network.statistics 	total_cost 	0
scalar tiger_network.statistics 	total_replicas 	100000
scalar tiger_network.statistics 	inner_hit 	0.43435306221254
scalar tiger_network.node[0].core_layer 	interests[0] 	41565
scalar tiger_network.node[0].core_layer 	repo_load[0] 	9376
scalar tiger_network.node[0].core_layer 	data[0] 	26781
scalar tiger_network.node[0].core_layer 	repo_int[0] 	149548
scalar tiger_network.node[0].content_store 	p_hit[0] 	0.13008540839649
scalar tiger_network.node[0].content_store 	hits[0] 	5407
scalar tiger_network.node[0].content_store 	misses[0] 	36158
scalar tiger_network.node[0].content_store 	decision_yes[0] 	100
scalar tiger_network.node[0].content_store 	decision_no[0] 	36057
scalar tiger_network.node[0].content_store 	decision_ratio[0] 	0.0027657161822054
scalar tiger_network.node[1].core_layer 	interests[1] 	42554
scalar tiger_network.node[1].core_layer 	data[1] 	37399
scalar tiger_network.node[1].content_store 	p_hit[1] 	0.12114019833623
scalar tiger_network.node[1].content_store 	hits[1] 	5155
scalar tiger_network.node[1].content_store 	misses[1] 	37399
scalar tiger_network.node[1].content_store 	decision_yes[1] 	89
scalar tiger_network.node[1].content_store 	decision_no[1] 	37310
scalar tiger_network.node[1].content_store 	decision_ratio[1] 	0.002379742773871
scalar tiger_network.node[2].core_layer 	interests[2] 	56651
scalar tiger_network.node[2].core_layer 	repo_load[2] 	9484
scalar tiger_network.node[2].core_layer 	data[2] 	41644
scalar tiger_network.node[2].content_store 	p_hit[2] 	0.097491659458792
scalar tiger_network.node[2].content_store 	hits[2] 	5523
scalar tiger_network.node[2].content_store 	misses[2] 	51128
scalar tiger_network.node[2].content_store 	decision_yes[2] 	111
scalar tiger_network.node[2].content_store 	decision_no[2] 	51017
scalar tiger_network.node[2].content_store 	decision_ratio[2] 	0.002171021749335
scalar tiger_network.node[3].core_layer 	interests[3] 	53366
scalar tiger_network.node[3].core_layer 	repo_load[3] 	9487
scalar tiger_network.node[3].core_layer 	data[3] 	38516
scalar tiger_network.node[3].content_store 	p_hit[3] 	0.10049469699809
scalar tiger_network.node[3].content_store 	hits[3] 	5363
scalar tiger_network.node[3].content_store 	misses[3] 	48003
scalar tiger_network.node[3].content_store 	decision_yes[3] 	94
scalar tiger_network.node[3].content_store 	decision_no[3] 	47909
scalar tiger_network.node[3].content_store 	decision_ratio[3] 	0.0019582109451493
scalar tiger_network.node[4].core_layer 	interests[4] 	38046
scalar tiger_network.node[4].core_layer 	repo_load[4] 	9216
scalar tiger_network.node[4].core_layer 	data[4] 	23735
scalar tiger_network.node[4].content_store 	p_hit[4] 	0.13391683751248
scalar tiger_network.node[4].content_store 	hits[4] 	5095
scalar tiger_network.node[4].content_store 	misses[4] 	32951
scalar tiger_network.node[4].content_store 	decision_yes[4] 	90
scalar tiger_network.node[4].content_store 	decision_no[4] 	32861
scalar tiger_network.node[4].content_store 	decision_ratio[4] 	0.0027313283360141
scalar tiger_network.node[5].core_layer 	interests[5] 	26942
scalar tiger_network.node[5].core_layer 	repo_load[5] 	9410
scalar tiger_network.node[5].core_layer 	data[5] 	12599
scalar tiger_network.node[5].content_store 	p_hit[5] 	0.1830970232351
scalar tiger_network.node[5].content_store 	hits[5] 	4933
scalar tiger_network.node[5].content_store 	misses[5] 	22009
scalar tiger_network.node[5].content_store 	decision_yes[5] 	77
scalar tiger_network.node[5].content_store 	decision_no[5] 	21932
scalar tiger_network.node[5].content_store 	decision_ratio[5] 	0.0034985687673225
scalar tiger_network.node[6].core_layer 	interests[6] 	35693
scalar tiger_network.node[6].core_layer 	repo_load[6] 	9397
scalar tiger_network.node[6].core_layer 	data[6] 	21212
scalar tiger_network.node[6].content_store 	p_hit[6] 	0.14243689238786
scalar tiger_network.node[6].content_store 	hits[6] 	5084
scalar tiger_network.node[6].content_store 	misses[6] 	30609
scalar tiger_network.node[6].content_store 	decision_yes[6] 	66
scalar tiger_network.node[6].content_store 	decision_no[6] 	30543
scalar tiger_network.node[6].content_store 	decision_ratio[6] 	0.0021562285602274
scalar tiger_network.node[7].core_layer 	interests[7] 	37253
scalar tiger_network.node[7].core_layer 	repo_load[7] 	9306
scalar tiger_network.node[7].core_layer 	data[7] 	23144
scalar tiger_network.node[7].content_store 	p_hit[7] 	0.1289292137546
scalar tiger_network.node[7].content_store 	hits[7] 	4803
scalar tiger_network.node[7].content_store 	misses[7] 	32450
scalar tiger_network.node[7].content_store 	decision_yes[7] 	96
scalar tiger_network.node[7].content_store 	decision_no[7] 	32354
scalar tiger_network.node[7].content_store 	decision_ratio[7] 	0.0029583975346687
scalar tiger_network.node[8].core_layer 	interests[8] 	45132
scalar tiger_network.node[8].core_layer 	repo_load[8] 	9884
scalar tiger_network.node[8].core_layer 	data[8] 	29871
scalar tiger_network.node[8].content_store 	p_hit[8] 	0.11913941327661
scalar tiger_network.node[8].content_store 	hits[8] 	5377
scalar tiger_network.node[8].content_store 	misses[8] 	39755
scalar tiger_network.node[8].content_store 	decision_yes[8] 	105
scalar tiger_network.node[8].content_store 	decision_no[8] 	39650
scalar tiger_network.node[8].content_store 	decision_ratio[8] 	0.0026411772104138
scalar tiger_network.node[9].core_layer 	interests[9] 	15882
scalar tiger_network.node[9].core_layer 	data[9] 	10703
scalar tiger_network.node[9].content_store 	p_hit[9] 	0.32609243168367
scalar tiger_network.node[9].content_store 	hits[9] 	5179
scalar tiger_network.node[9].content_store 	misses[9] 	10703
scalar tiger_network.node[9].content_store 	decision_yes[9] 	28
scalar tiger_network.node[9].content_store 	decision_no[9] 	10675
scalar tiger_network.node[9].content_store 	decision_ratio[9] 	0.0026160889470242
scalar tiger_network.node[10].core_layer 	interests[10] 	27832
scalar tiger_network.node[10].core_layer 	repo_load[10] 	9351
scalar tiger_network.node[10].core_layer 	data[10] 	13406
scalar tiger_network.node[10].content_store 	p_hit[10] 	0.18234406438632
scalar tiger_network.node[10].content_store 	hits[10] 	5075
scalar tiger_network.node[10].content_store 	misses[10] 	22757
scalar tiger_network.node[10].content_store 	decision_yes[10] 	80
scalar tiger_network.node[10].content_store 	decision_no[10] 	22677
scalar tiger_network.node[10].content_store 	decision_ratio[10] 	0.0035154018543745
scalar tiger_network.node[11].core_layer 	interests[11] 	27471
scalar tiger_network.node[11].core_layer 	repo_load[11] 	8816
scalar tiger_network.node[11].core_layer 	data[11] 	13717
scalar tiger_network.node[11].content_store 	p_hit[11] 	0.1797531942776
scalar tiger_network.node[11].content_store 	hits[11] 	4938
scalar tiger_network.node[11].content_store 	misses[11] 	22533
scalar tiger_network.node[11].content_store 	decision_yes[11] 	80
scalar tiger_network.node[11].content_store 	decision_no[11] 	22453
scalar tiger_network.node[11].content_store 	decision_ratio[11] 	0.0035503483779346
scalar tiger_network.node[12].core_layer 	interests[12] 	37238
scalar tiger_network.node[12].core_layer 	repo_load[12] 	9721
scalar tiger_network.node[12].core_layer 	data[12] 	22030
scalar tiger_network.node[12].content_store 	p_hit[12] 	0.14734948171223
scalar tiger_network.node[12].content_store 	hits[12] 	5487
scalar tiger_network.node[12].content_store 	misses[12] 	31751
scalar tiger_network.node[12].content_store 	decision_yes[12] 	97
scalar tiger_network.node[12].content_store 	decision_no[12] 	31654
scalar tiger_network.node[12].content_store 	decision_ratio[12] 	0.0030550218890744
scalar tiger_network.node[13].core_layer 	interests[13] 	17908
scalar tiger_network.node[13].core_layer 	data[13] 	12726
scalar tiger_network.node[13].content_store 	p_hit[13] 	0.28936788027697
scalar tiger_network.node[13].content_store 	hits[13] 	5182
scalar tiger_network.node[13].content_store 	misses[13] 	12726
scalar tiger_network.node[13].content_store 	decision_yes[13] 	37
scalar tiger_network.node[13].content_store 	decision_no[13] 	12689
scalar tiger_network.node[13].content_store 	decision_ratio[13] 	0.0029074336005029
scalar tiger_network.node[14].core_layer 	interests[14] 	23955
scalar tiger_network.node[14].core_layer 	repo_load[14] 	8831
scalar tiger_network.node[14].core_layer 	data[14] 	10215
scalar tiger_network.node[14].content_store 	p_hit[14] 	0.20492590273429
scalar tiger_network.node[14].content_store 	hits[14] 	4909
scalar tiger_network.node[14].content_store 	misses[14] 	19046
scalar tiger_network.node[14].content_store 	decision_yes[14] 	76
scalar tiger_network.node[14].content_store 	decision_no[14] 	18970
scalar tiger_network.node[14].content_store 	decision_ratio[14] 	0.0039903391788302
scalar tiger_network.node[15].core_layer 	interests[15] 	26573
scalar tiger_network.node[15].core_layer 	repo_load[15] 	9403
scalar tiger_network.node[15].core_layer 	data[15] 	12299
scalar tiger_network.node[15].content_store 	p_hit[15] 	0.18330636360215
scalar tiger_network.node[15].content_store 	hits[15] 	4871
scalar tiger_network.node[15].content_store 	misses[15] 	21702
scalar tiger_network.node[15].content_store 	decision_yes[15] 	80
scalar tiger_network.node[15].content_store 	decision_no[15] 	21622
scalar tiger_network.node[15].content_store 	decision_ratio[15] 	0.0036862961938992
scalar tiger_network.node[16].core_layer 	interests[16] 	31825
scalar tiger_network.node[16].core_layer 	repo_load[16] 	9440
scalar tiger_network.node[16].core_layer 	data[16] 	16705
scalar tiger_network.node[16].content_store 	p_hit[16] 	0.17847604084839
scalar tiger_network.node[16].content_store 	hits[16] 	5680
scalar tiger_network.node[16].content_store 	misses[16] 	26145
scalar tiger_network.node[16].content_store 	decision_yes[16] 	85
scalar tiger_network.node[16].content_store 	decision_no[16] 	26060
scalar tiger_network.node[16].content_store 	decision_ratio[16] 	0.0032510996366418
scalar tiger_network.node[17].core_layer 	interests[17] 	34911
scalar tiger_network.node[17].core_layer 	data[17] 	28822
scalar tiger_network.node[17].content_store 	p_hit[17] 	0.17441494084959
scalar tiger_network.node[17].content_store 	hits[17] 	6089
scalar tiger_network.node[17].content_store 	misses[17] 	28822
scalar tiger_network.node[17].content_store 	decision_yes[17] 	47
scalar tiger_network.node[17].content_store 	decision_no[17] 	28775
scalar tiger_network.node[17].content_store 	decision_ratio[17] 	0.0016306987717716
scalar tiger_network.node[18].core_layer 	interests[18] 	37552
scalar tiger_network.node[18].core_layer 	data[18] 	31957
scalar tiger_network.node[18].content_store 	p_hit[18] 	0.14899339582446
scalar tiger_network.node[18].content_store 	hits[18] 	5595
scalar tiger_network.node[18].content_store 	misses[18] 	31957
scalar tiger_network.node[18].content_store 	decision_yes[18] 	73
scalar tiger_network.node[18].content_store 	decision_no[18] 	31884
scalar tiger_network.node[18].content_store 	decision_ratio[18] 	0.0022843195544012
scalar tiger_network.node[19].core_layer 	interests[19] 	29646
scalar tiger_network.node[19].core_layer 	repo_load[19] 	9164
scalar tiger_network.node[19].core_layer 	data[19] 	14981
scalar tiger_network.node[19].content_store 	p_hit[19] 	0.18555623018282
scalar tiger_network.node[19].content_store 	hits[19] 	5501
scalar tiger_network.node[19].content_store 	misses[19] 	24145
scalar tiger_network.node[19].content_store 	decision_yes[19] 	78
scalar tiger_network.node[19].content_store 	decision_no[19] 	24067
scalar tiger_network.node[19].content_store 	decision_ratio[19] 	0.0032304825015531
scalar tiger_network.node[20].core_layer 	interests[20] 	18822
scalar tiger_network.node[20].core_layer 	data[20] 	13708
scalar tiger_network.node[20].content_store 	p_hit[20] 	0.27170332589523
scalar tiger_network.node[20].content_store 	hits[20] 	5114
scalar tiger_network.node[20].content_store 	misses[20] 	13708
scalar tiger_network.node[20].content_store 	decision_yes[20] 	32
scalar tiger_network.node[20].content_store 	decision_no[20] 	13676
scalar tiger_network.node[20].content_store 	decision_ratio[20] 	0.0023344032681646
scalar tiger_network.node[21].core_layer 	interests[21] 	26223
scalar tiger_network.node[21].core_layer 	repo_load[21] 	9262
scalar tiger_network.node[21].core_layer 	data[21] 	12486
scalar tiger_network.node[21].content_store 	p_hit[21] 	0.17065171795752
scalar tiger_network.node[21].content_store 	hits[21] 	4475
scalar tiger_network.node[21].content_store 	misses[21] 	21748
scalar tiger_network.node[21].content_store 	decision_yes[21] 	78
scalar tiger_network.node[21].content_store 	decision_no[21] 	21670
scalar tiger_network.node[21].content_store 	decision_ratio[21] 	0.0035865366930292
scalar tiger_network.client[0] 	hdistance[0] 	2.2166918049271
scalar tiger_network.client[0] 	downloads[0] 	11934
scalar tiger_network.client[0] 	avg_time[0] 	0.000522866063
scalar tiger_network.client[1] 	hdistance[1] 	2.2955340776537
scalar tiger_network.client[1] 	downloads[1] 	12002
scalar tiger_network.client[1] 	avg_time[1] 	0.000808659712
scalar tiger_network.client[2] 	hdistance[2] 	2.1356608072917
scalar tiger_network.client[2] 	downloads[2] 	12288
scalar tiger_network.client[2] 	avg_time[2] 	0.000858546439
scalar tiger_network.client[3] 	hdistance[3] 	2.1856575024843
scalar tiger_network.client[3] 	downloads[3] 	12076
scalar tiger_network.client[3] 	avg_time[3] 	0.000919934345
scalar tiger_network.client[4] 	hdistance[4] 	2.2601838576368
scalar tiger_network.client[4] 	downloads[4] 	11857
scalar tiger_network.client[4] 	avg_time[4] 	0.000915319614
scalar tiger_network.client[5] 	hdistance[5] 	2.3545158869152
scalar tiger_network.client[5] 	downloads[5] 	11991
scalar tiger_network.client[5] 	avg_time[5] 	0.000920710695
scalar tiger_network.client[6] 	hdistance[6] 	2.30249978958
scalar tiger_network.client[6] 	downloads[6] 	11881
scalar tiger_network.client[6] 	avg_time[6] 	0.000724536032
scalar tiger_network.client[7] 	hdistance[7] 	2.3654955872369
scalar tiger_network.client[7] 	downloads[7] 	11784
scalar tiger_network.client[7] 	avg_time[7] 	0.00072035721
scalar tiger_network.client[8] 	hdistance[8] 	2.327221438646
scalar tiger_network.client[8] 	downloads[8] 	12053
scalar tiger_network.client[8] 	avg_time[8] 	0.000765547453
scalar tiger_network.client[9] 	hdistance[9] 	2.5733152726041
scalar tiger_network.client[9] 	downloads[9] 	11812
scalar tiger_network.client[9] 	avg_time[9] 	0.000691597134
scalar tiger_network.client[10] 	hdistance[10] 	2.5172272017104
scalar tiger_network.client[10] 	downloads[10] 	12161
scalar tiger_network.client[10] 	avg_time[10] 	0.000764981076
scalar tiger_network.client[11] 	hdistance[11] 	2.4370345854708
scalar tiger_network.client[11] 	downloads[11] 	12086
scalar tiger_network.client[11] 	avg_time[11] 	0.000476081847
scalar tiger_network.client[12] 	hdistance[12] 	2.2742340532396
scalar tiger_network.client[12] 	downloads[12] 	11946
scalar tiger_network.client[12] 	avg_time[12] 	0.000775506458
scalar tiger_network.client[13] 	hdistance[13] 	2.3805752396832
scalar tiger_network.client[13] 	downloads[13] 	11995
scalar tiger_network.client[13] 	avg_time[13] 	0.000681147964
scalar tiger_network.client[14] 	hdistance[14] 	2.4558774834437
scalar tiger_network.client[14] 	downloads[14] 	12080
scalar tiger_network.client[14] 	avg_time[14] 	0.000608001945
scalar tiger_network.client[15] 	hdistance[15] 	2.3752425955616
scalar tiger_network.client[15] 	downloads[15] 	11851
scalar tiger_network.client[15] 	avg_time[15] 	0.000635170425
scalar tiger_network.client[16] 	hdistance[16] 	2.2953478797859
scalar tiger_network.client[16] 	downloads[16] 	12145
scalar tiger_network.client[16] 	avg_time[16] 	0.000635524699
scalar tiger_network.client[17] 	hdistance[17] 	2.1226470342174
scalar tiger_network.client[17] 	downloads[17] 	11953
scalar tiger_network.client[17] 	avg_time[17] 	0.000549263131
scalar tiger_network.client[18] 	hdistance[18] 	2.1906335177996
scalar tiger_network.client[18] 	downloads[18] 	12107
scalar tiger_network.client[18] 	avg_time[18] 	0.000464577291
scalar tiger_network.client[19] 	hdistance[19] 	2.2872760151241
scalar tiger_network.client[19] 	downloads[19] 	12166
scalar tiger_network.client[19] 	avg_time[19] 	0.000368432945
scalar tiger_network.client[20] 	hdistance[20] 	2.5310080678021
scalar tiger_network.client[20] 	downloads[20] 	12271
scalar tiger_network.client[20] 	avg_time[20] 	0.000653883655
scalar tiger_network.client[21] 	hdistance[21] 	2.5613227291754
scalar tiger_network.client[21] 	downloads[21] 	11945
scalar tiger_network.client[21] 	avg_time[21] 	0.000667900569
