version 2
run General-11-20160824-11:46:44-24543
attr D fix0.005
attr F nrr
attr R lru
attr a 0.9
attr configname General
attr datetime 20160824-11:46:44
attr experiment General
attr inifile hw5115/scenario_C/omnetp.ini
attr iterationvars "$net=dtelecom, $rep=2, $a=0.9, $F=nrr, $D=fix0.005, $R=lru, $window=60, $variance=0.05, $mytime=600"
attr iterationvars2 "$net=dtelecom, $rep=2, $a=0.9, $F=nrr, $D=fix0.005, $R=lru, $window=60, $variance=0.05, $mytime=600, $repetition=0"
attr measurement "$net=dtelecom, $rep=2, $a=0.9, $F=nrr, $D=fix0.005, $R=lru, $window=60, $variance=0.05, $mytime=600"
attr mytime 600
attr net dtelecom
attr network networks.${net=dtelecom}_network
attr processid 24543
attr rep 2
attr repetition 0
attr replication #0
attr resultdir results
attr runnumber 11
attr seedset 2
attr variance 0.05
attr window 60

scalar . 	a 	0.9
scalar . 	mytime 	600
scalar . 	rep 	2
scalar . 	variance 	0.05
scalar . 	window 	60
scalar dtelecom_network.content_distribution 	repo-0 	47
scalar dtelecom_network.content_distribution 	repo-1 	25
scalar dtelecom_network.content_distribution 	repo-2 	67
scalar dtelecom_network.content_distribution 	repo-3 	23
scalar dtelecom_network.content_distribution 	repo-4 	57
scalar dtelecom_network.content_distribution 	repo-5 	14
scalar dtelecom_network.content_distribution 	repo-6 	42
scalar dtelecom_network.content_distribution 	repo-7 	8
scalar dtelecom_network.content_distribution 	repo-8 	39
scalar dtelecom_network.content_distribution 	repo-9 	48
scalar dtelecom_network.content_distribution 	repo-10 	7
scalar dtelecom_network.content_distribution 	repo-11 	44
scalar dtelecom_network.content_distribution 	repo-12 	0
scalar dtelecom_network.content_distribution 	repo-13 	55
scalar dtelecom_network.content_distribution 	repo-14 	6
scalar dtelecom_network.content_distribution 	repo-15 	19
scalar dtelecom_network.content_distribution 	client-0 	46
scalar dtelecom_network.content_distribution 	client-1 	30
scalar dtelecom_network.content_distribution 	client-2 	8
scalar dtelecom_network.content_distribution 	client-3 	49
scalar dtelecom_network.content_distribution 	client-4 	66
scalar dtelecom_network.content_distribution 	client-5 	58
scalar dtelecom_network.content_distribution 	client-6 	32
scalar dtelecom_network.content_distribution 	client-7 	40
scalar dtelecom_network.content_distribution 	client-8 	42
scalar dtelecom_network.content_distribution 	client-9 	45
scalar dtelecom_network.content_distribution 	client-10 	33
scalar dtelecom_network.content_distribution 	client-11 	28
scalar dtelecom_network.content_distribution 	client-12 	3
scalar dtelecom_network.content_distribution 	client-13 	57
scalar dtelecom_network.content_distribution 	client-14 	50
scalar dtelecom_network.content_distribution 	client-15 	17
scalar dtelecom_network.content_distribution 	client-16 	59
scalar dtelecom_network.content_distribution 	client-17 	48
scalar dtelecom_network.content_distribution 	client-18 	23
scalar dtelecom_network.content_distribution 	client-19 	22
scalar dtelecom_network.content_distribution 	client-20 	67
scalar dtelecom_network.content_distribution 	client-21 	62
scalar dtelecom_network.content_distribution 	client-22 	56
scalar dtelecom_network.content_distribution 	client-23 	55
scalar dtelecom_network.content_distribution 	client-24 	53
scalar dtelecom_network.content_distribution 	client-25 	36
scalar dtelecom_network.content_distribution 	client-26 	51
scalar dtelecom_network.content_distribution 	client-27 	37
scalar dtelecom_network.content_distribution 	client-28 	54
scalar dtelecom_network.content_distribution 	client-29 	4
scalar dtelecom_network.content_distribution 	client-30 	31
scalar dtelecom_network.content_distribution 	client-31 	9
scalar dtelecom_network.content_distribution 	repo-0_card 	6237
scalar dtelecom_network.content_distribution 	repo-0_price 	0
scalar dtelecom_network.content_distribution 	repo-1_card 	6125
scalar dtelecom_network.content_distribution 	repo-1_price 	0
scalar dtelecom_network.content_distribution 	repo-2_card 	6218
scalar dtelecom_network.content_distribution 	repo-2_price 	0
scalar dtelecom_network.content_distribution 	repo-3_card 	6258
scalar dtelecom_network.content_distribution 	repo-3_price 	0
scalar dtelecom_network.content_distribution 	repo-4_card 	6179
scalar dtelecom_network.content_distribution 	repo-4_price 	0
scalar dtelecom_network.content_distribution 	repo-5_card 	6255
scalar dtelecom_network.content_distribution 	repo-5_price 	0
scalar dtelecom_network.content_distribution 	repo-6_card 	6348
scalar dtelecom_network.content_distribution 	repo-6_price 	0
scalar dtelecom_network.content_distribution 	repo-7_card 	6286
scalar dtelecom_network.content_distribution 	repo-7_price 	0
scalar dtelecom_network.content_distribution 	repo-8_card 	6393
scalar dtelecom_network.content_distribution 	repo-8_price 	0
scalar dtelecom_network.content_distribution 	repo-9_card 	6213
scalar dtelecom_network.content_distribution 	repo-9_price 	0
scalar dtelecom_network.content_distribution 	repo-10_card 	6263
scalar dtelecom_network.content_distribution 	repo-10_price 	0
scalar dtelecom_network.content_distribution 	repo-11_card 	6216
scalar dtelecom_network.content_distribution 	repo-11_price 	0
scalar dtelecom_network.content_distribution 	repo-12_card 	6289
scalar dtelecom_network.content_distribution 	repo-12_price 	0
scalar dtelecom_network.content_distribution 	repo-13_card 	6209
scalar dtelecom_network.content_distribution 	repo-13_price 	0
scalar dtelecom_network.content_distribution 	repo-14_card 	6400
scalar dtelecom_network.content_distribution 	repo-14_price 	0
scalar dtelecom_network.content_distribution 	repo-15_card 	6111
scalar dtelecom_network.content_distribution 	repo-15_price 	0
scalar dtelecom_network.statistics 	stabilization_time 	43065.5
scalar dtelecom_network.statistics 	p_hit 	0.29332926828708
scalar dtelecom_network.statistics 	interests 	13142.970588235
scalar dtelecom_network.statistics 	data 	7493.2058823529
scalar dtelecom_network.statistics 	hdistance 	1.8044314903498
scalar dtelecom_network.statistics 	avg_time 	0.022698014024
scalar dtelecom_network.statistics 	downloads 	384138
scalar dtelecom_network.statistics 	total_cost 	0
scalar dtelecom_network.statistics 	total_replicas 	100000
scalar dtelecom_network.statistics 	inner_hit 	0.52196606427898
scalar dtelecom_network.node[0].core_layer 	interests[0] 	13680
scalar dtelecom_network.node[0].core_layer 	repo_load[0] 	10749
scalar dtelecom_network.node[0].core_layer 	data[0] 	1252
scalar dtelecom_network.node[0].core_layer 	repo_int[0] 	183631
scalar dtelecom_network.node[0].content_store 	p_hit[0] 	0.12280701754386
scalar dtelecom_network.node[0].content_store 	hits[0] 	1680
scalar dtelecom_network.node[0].content_store 	misses[0] 	12000
scalar dtelecom_network.node[0].content_store 	decision_yes[0] 	52
scalar dtelecom_network.node[0].content_store 	decision_no[0] 	11949
scalar dtelecom_network.node[0].content_store 	decision_ratio[0] 	0.0043329722523123
scalar dtelecom_network.node[1].core_layer 	interests[1] 	177278
scalar dtelecom_network.node[1].core_layer 	data[1] 	170660
scalar dtelecom_network.node[1].content_store 	p_hit[1] 	0.037240943602703
scalar dtelecom_network.node[1].content_store 	hits[1] 	6602
scalar dtelecom_network.node[1].content_store 	misses[1] 	170676
scalar dtelecom_network.node[1].content_store 	decision_yes[1] 	871
scalar dtelecom_network.node[1].content_store 	decision_no[1] 	169789
scalar dtelecom_network.node[1].content_store 	decision_ratio[1] 	0.0051037149888668
scalar dtelecom_network.node[2].core_layer 	interests[2] 	5517
scalar dtelecom_network.node[2].core_layer 	data[2] 	2508
scalar dtelecom_network.node[2].content_store 	p_hit[2] 	0.54540511147363
scalar dtelecom_network.node[2].content_store 	hits[2] 	3009
scalar dtelecom_network.node[2].content_store 	misses[2] 	2508
scalar dtelecom_network.node[2].content_store 	decision_yes[2] 	14
scalar dtelecom_network.node[2].content_store 	decision_no[2] 	2494
scalar dtelecom_network.node[2].content_store 	decision_ratio[2] 	0.0055821371610845
scalar dtelecom_network.node[3].core_layer 	interests[3] 	24908
scalar dtelecom_network.node[3].core_layer 	data[3] 	9326
scalar dtelecom_network.node[3].content_store 	p_hit[3] 	0.62546169905251
scalar dtelecom_network.node[3].content_store 	hits[3] 	15579
scalar dtelecom_network.node[3].content_store 	misses[3] 	9329
scalar dtelecom_network.node[3].content_store 	decision_yes[3] 	46
scalar dtelecom_network.node[3].content_store 	decision_no[3] 	9280
scalar dtelecom_network.node[3].content_store 	decision_ratio[3] 	0.004932446922582
scalar dtelecom_network.node[4].core_layer 	interests[4] 	55576
scalar dtelecom_network.node[4].core_layer 	data[4] 	39642
scalar dtelecom_network.node[4].content_store 	p_hit[4] 	0.28611271052253
scalar dtelecom_network.node[4].content_store 	hits[4] 	15901
scalar dtelecom_network.node[4].content_store 	misses[4] 	39675
scalar dtelecom_network.node[4].content_store 	decision_yes[4] 	199
scalar dtelecom_network.node[4].content_store 	decision_no[4] 	39443
scalar dtelecom_network.node[4].content_store 	decision_ratio[4] 	0.0050199283588114
scalar dtelecom_network.node[5].core_layer 	interests[5] 	0
scalar dtelecom_network.node[5].core_layer 	data[5] 	0
scalar dtelecom_network.node[5].content_store 	p_hit[5] 	-nan
scalar dtelecom_network.node[5].content_store 	hits[5] 	0
scalar dtelecom_network.node[5].content_store 	misses[5] 	0
scalar dtelecom_network.node[5].content_store 	decision_yes[5] 	0
scalar dtelecom_network.node[5].content_store 	decision_no[5] 	0
scalar dtelecom_network.node[5].content_store 	decision_ratio[5] 	0
scalar dtelecom_network.node[6].core_layer 	interests[6] 	14789
scalar dtelecom_network.node[6].core_layer 	repo_load[6] 	11329
scalar dtelecom_network.node[6].core_layer 	data[6] 	0
scalar dtelecom_network.node[6].content_store 	p_hit[6] 	0.23395767124214
scalar dtelecom_network.node[6].content_store 	hits[6] 	3460
scalar dtelecom_network.node[6].content_store 	misses[6] 	11329
scalar dtelecom_network.node[6].content_store 	decision_yes[6] 	59
scalar dtelecom_network.node[6].content_store 	decision_no[6] 	11270
scalar dtelecom_network.node[6].content_store 	decision_ratio[6] 	0.0052078735987289
scalar dtelecom_network.node[7].core_layer 	interests[7] 	12731
scalar dtelecom_network.node[7].core_layer 	repo_load[7] 	11101
scalar dtelecom_network.node[7].core_layer 	data[7] 	0
scalar dtelecom_network.node[7].content_store 	p_hit[7] 	0.12803393291964
scalar dtelecom_network.node[7].content_store 	hits[7] 	1630
scalar dtelecom_network.node[7].content_store 	misses[7] 	11101
scalar dtelecom_network.node[7].content_store 	decision_yes[7] 	56
scalar dtelecom_network.node[7].content_store 	decision_no[7] 	11045
scalar dtelecom_network.node[7].content_store 	decision_ratio[7] 	0.0050445905774255
scalar dtelecom_network.node[8].core_layer 	interests[8] 	25236
scalar dtelecom_network.node[8].core_layer 	repo_load[8] 	12428
scalar dtelecom_network.node[8].core_layer 	data[8] 	8765
scalar dtelecom_network.node[8].content_store 	p_hit[8] 	0.16024726581075
scalar dtelecom_network.node[8].content_store 	hits[8] 	4044
scalar dtelecom_network.node[8].content_store 	misses[8] 	21192
scalar dtelecom_network.node[8].content_store 	decision_yes[8] 	113
scalar dtelecom_network.node[8].content_store 	decision_no[8] 	21080
scalar dtelecom_network.node[8].content_store 	decision_ratio[8] 	0.0053319492285189
scalar dtelecom_network.node[9].core_layer 	interests[9] 	14928
scalar dtelecom_network.node[9].core_layer 	data[9] 	9751
scalar dtelecom_network.node[9].content_store 	p_hit[9] 	0.34679796355841
scalar dtelecom_network.node[9].content_store 	hits[9] 	5177
scalar dtelecom_network.node[9].content_store 	misses[9] 	9751
scalar dtelecom_network.node[9].content_store 	decision_yes[9] 	49
scalar dtelecom_network.node[9].content_store 	decision_no[9] 	9702
scalar dtelecom_network.node[9].content_store 	decision_ratio[9] 	0.0050251256281407
scalar dtelecom_network.node[10].core_layer 	interests[10] 	0
scalar dtelecom_network.node[10].core_layer 	data[10] 	0
scalar dtelecom_network.node[10].content_store 	p_hit[10] 	-nan
scalar dtelecom_network.node[10].content_store 	hits[10] 	0
scalar dtelecom_network.node[10].content_store 	misses[10] 	0
scalar dtelecom_network.node[10].content_store 	decision_yes[10] 	0
scalar dtelecom_network.node[10].content_store 	decision_no[10] 	0
scalar dtelecom_network.node[10].content_store 	decision_ratio[10] 	0
scalar dtelecom_network.node[11].core_layer 	interests[11] 	0
scalar dtelecom_network.node[11].core_layer 	data[11] 	0
scalar dtelecom_network.node[11].content_store 	p_hit[11] 	-nan
scalar dtelecom_network.node[11].content_store 	hits[11] 	0
scalar dtelecom_network.node[11].content_store 	misses[11] 	0
scalar dtelecom_network.node[11].content_store 	decision_yes[11] 	0
scalar dtelecom_network.node[11].content_store 	decision_no[11] 	0
scalar dtelecom_network.node[11].content_store 	decision_ratio[11] 	0
scalar dtelecom_network.node[12].core_layer 	interests[12] 	0
scalar dtelecom_network.node[12].core_layer 	data[12] 	0
scalar dtelecom_network.node[12].content_store 	p_hit[12] 	-nan
scalar dtelecom_network.node[12].content_store 	hits[12] 	0
scalar dtelecom_network.node[12].content_store 	misses[12] 	0
scalar dtelecom_network.node[12].content_store 	decision_yes[12] 	0
scalar dtelecom_network.node[12].content_store 	decision_no[12] 	0
scalar dtelecom_network.node[12].content_store 	decision_ratio[12] 	0
scalar dtelecom_network.node[13].core_layer 	interests[13] 	0
scalar dtelecom_network.node[13].core_layer 	data[13] 	0
scalar dtelecom_network.node[13].content_store 	p_hit[13] 	-nan
scalar dtelecom_network.node[13].content_store 	hits[13] 	0
scalar dtelecom_network.node[13].content_store 	misses[13] 	0
scalar dtelecom_network.node[13].content_store 	decision_yes[13] 	0
scalar dtelecom_network.node[13].content_store 	decision_no[13] 	0
scalar dtelecom_network.node[13].content_store 	decision_ratio[13] 	0
scalar dtelecom_network.node[14].core_layer 	interests[14] 	12691
scalar dtelecom_network.node[14].core_layer 	repo_load[14] 	10841
scalar dtelecom_network.node[14].core_layer 	data[14] 	0
scalar dtelecom_network.node[14].content_store 	p_hit[14] 	0.14577259475219
scalar dtelecom_network.node[14].content_store 	hits[14] 	1850
scalar dtelecom_network.node[14].content_store 	misses[14] 	10841
scalar dtelecom_network.node[14].content_store 	decision_yes[14] 	65
scalar dtelecom_network.node[14].content_store 	decision_no[14] 	10776
scalar dtelecom_network.node[14].content_store 	decision_ratio[14] 	0.0059957568489992
scalar dtelecom_network.node[15].core_layer 	interests[15] 	0
scalar dtelecom_network.node[15].core_layer 	data[15] 	0
scalar dtelecom_network.node[15].content_store 	p_hit[15] 	-nan
scalar dtelecom_network.node[15].content_store 	hits[15] 	0
scalar dtelecom_network.node[15].content_store 	misses[15] 	0
scalar dtelecom_network.node[15].content_store 	decision_yes[15] 	0
scalar dtelecom_network.node[15].content_store 	decision_no[15] 	0
scalar dtelecom_network.node[15].content_store 	decision_ratio[15] 	0
scalar dtelecom_network.node[16].core_layer 	interests[16] 	0
scalar dtelecom_network.node[16].core_layer 	data[16] 	0
scalar dtelecom_network.node[16].content_store 	p_hit[16] 	-nan
scalar dtelecom_network.node[16].content_store 	hits[16] 	0
scalar dtelecom_network.node[16].content_store 	misses[16] 	0
scalar dtelecom_network.node[16].content_store 	decision_yes[16] 	0
scalar dtelecom_network.node[16].content_store 	decision_no[16] 	0
scalar dtelecom_network.node[16].content_store 	decision_ratio[16] 	0
scalar dtelecom_network.node[17].core_layer 	interests[17] 	14548
scalar dtelecom_network.node[17].core_layer 	data[17] 	10059
scalar dtelecom_network.node[17].content_store 	p_hit[17] 	0.30842727522684
scalar dtelecom_network.node[17].content_store 	hits[17] 	4487
scalar dtelecom_network.node[17].content_store 	misses[17] 	10061
scalar dtelecom_network.node[17].content_store 	decision_yes[17] 	47
scalar dtelecom_network.node[17].content_store 	decision_no[17] 	10012
scalar dtelecom_network.node[17].content_store 	decision_ratio[17] 	0.0046724326473805
scalar dtelecom_network.node[18].core_layer 	interests[18] 	0
scalar dtelecom_network.node[18].core_layer 	data[18] 	0
scalar dtelecom_network.node[18].content_store 	p_hit[18] 	-nan
scalar dtelecom_network.node[18].content_store 	hits[18] 	0
scalar dtelecom_network.node[18].content_store 	misses[18] 	0
scalar dtelecom_network.node[18].content_store 	decision_yes[18] 	0
scalar dtelecom_network.node[18].content_store 	decision_no[18] 	0
scalar dtelecom_network.node[18].content_store 	decision_ratio[18] 	0
scalar dtelecom_network.node[19].core_layer 	interests[19] 	12561
scalar dtelecom_network.node[19].core_layer 	repo_load[19] 	10574
scalar dtelecom_network.node[19].core_layer 	data[19] 	0
scalar dtelecom_network.node[19].content_store 	p_hit[19] 	0.15818804235332
scalar dtelecom_network.node[19].content_store 	hits[19] 	1987
scalar dtelecom_network.node[19].content_store 	misses[19] 	10574
scalar dtelecom_network.node[19].content_store 	decision_yes[19] 	53
scalar dtelecom_network.node[19].content_store 	decision_no[19] 	10521
scalar dtelecom_network.node[19].content_store 	decision_ratio[19] 	0.0050122943067902
scalar dtelecom_network.node[20].core_layer 	interests[20] 	0
scalar dtelecom_network.node[20].core_layer 	data[20] 	0
scalar dtelecom_network.node[20].content_store 	p_hit[20] 	-nan
scalar dtelecom_network.node[20].content_store 	hits[20] 	0
scalar dtelecom_network.node[20].content_store 	misses[20] 	0
scalar dtelecom_network.node[20].content_store 	decision_yes[20] 	0
scalar dtelecom_network.node[20].content_store 	decision_no[20] 	0
scalar dtelecom_network.node[20].content_store 	decision_ratio[20] 	0
scalar dtelecom_network.node[21].core_layer 	interests[21] 	0
scalar dtelecom_network.node[21].core_layer 	data[21] 	0
scalar dtelecom_network.node[21].content_store 	p_hit[21] 	-nan
scalar dtelecom_network.node[21].content_store 	hits[21] 	0
scalar dtelecom_network.node[21].content_store 	misses[21] 	0
scalar dtelecom_network.node[21].content_store 	decision_yes[21] 	0
scalar dtelecom_network.node[21].content_store 	decision_no[21] 	0
scalar dtelecom_network.node[21].content_store 	decision_ratio[21] 	0
scalar dtelecom_network.node[22].core_layer 	interests[22] 	13875
scalar dtelecom_network.node[22].core_layer 	data[22] 	9438
scalar dtelecom_network.node[22].content_store 	p_hit[22] 	0.31971171171171
scalar dtelecom_network.node[22].content_store 	hits[22] 	4436
scalar dtelecom_network.node[22].content_store 	misses[22] 	9439
scalar dtelecom_network.node[22].content_store 	decision_yes[22] 	56
scalar dtelecom_network.node[22].content_store 	decision_no[22] 	9382
scalar dtelecom_network.node[22].content_store 	decision_ratio[22] 	0.005933460478915
scalar dtelecom_network.node[23].core_layer 	interests[23] 	37504
scalar dtelecom_network.node[23].core_layer 	repo_load[23] 	12606
scalar dtelecom_network.node[23].core_layer 	data[23] 	17766
scalar dtelecom_network.node[23].content_store 	p_hit[23] 	0.19003306313993
scalar dtelecom_network.node[23].content_store 	hits[23] 	7127
scalar dtelecom_network.node[23].content_store 	misses[23] 	30377
scalar dtelecom_network.node[23].content_store 	decision_yes[23] 	174
scalar dtelecom_network.node[23].content_store 	decision_no[23] 	30198
scalar dtelecom_network.node[23].content_store 	decision_ratio[23] 	0.0057289608850257
scalar dtelecom_network.node[24].core_layer 	interests[24] 	0
scalar dtelecom_network.node[24].core_layer 	data[24] 	0
scalar dtelecom_network.node[24].content_store 	p_hit[24] 	-nan
scalar dtelecom_network.node[24].content_store 	hits[24] 	0
scalar dtelecom_network.node[24].content_store 	misses[24] 	0
scalar dtelecom_network.node[24].content_store 	decision_yes[24] 	0
scalar dtelecom_network.node[24].content_store 	decision_no[24] 	0
scalar dtelecom_network.node[24].content_store 	decision_ratio[24] 	0
scalar dtelecom_network.node[25].core_layer 	interests[25] 	12187
scalar dtelecom_network.node[25].core_layer 	repo_load[25] 	10363
scalar dtelecom_network.node[25].core_layer 	data[25] 	0
scalar dtelecom_network.node[25].content_store 	p_hit[25] 	0.149667678674
scalar dtelecom_network.node[25].content_store 	hits[25] 	1824
scalar dtelecom_network.node[25].content_store 	misses[25] 	10363
scalar dtelecom_network.node[25].content_store 	decision_yes[25] 	53
scalar dtelecom_network.node[25].content_store 	decision_no[25] 	10310
scalar dtelecom_network.node[25].content_store 	decision_ratio[25] 	0.0051143491267008
scalar dtelecom_network.node[26].core_layer 	interests[26] 	2353
scalar dtelecom_network.node[26].core_layer 	data[26] 	698
scalar dtelecom_network.node[26].content_store 	p_hit[26] 	0.7033574160646
scalar dtelecom_network.node[26].content_store 	hits[26] 	1655
scalar dtelecom_network.node[26].content_store 	misses[26] 	698
scalar dtelecom_network.node[26].content_store 	decision_yes[26] 	6
scalar dtelecom_network.node[26].content_store 	decision_no[26] 	692
scalar dtelecom_network.node[26].content_store 	decision_ratio[26] 	0.0085959885386819
scalar dtelecom_network.node[27].core_layer 	interests[27] 	0
scalar dtelecom_network.node[27].core_layer 	data[27] 	0
scalar dtelecom_network.node[27].content_store 	p_hit[27] 	-nan
scalar dtelecom_network.node[27].content_store 	hits[27] 	0
scalar dtelecom_network.node[27].content_store 	misses[27] 	0
scalar dtelecom_network.node[27].content_store 	decision_yes[27] 	0
scalar dtelecom_network.node[27].content_store 	decision_no[27] 	0
scalar dtelecom_network.node[27].content_store 	decision_ratio[27] 	0
scalar dtelecom_network.node[28].core_layer 	interests[28] 	14319
scalar dtelecom_network.node[28].core_layer 	data[28] 	9289
scalar dtelecom_network.node[28].content_store 	p_hit[28] 	0.35128151407221
scalar dtelecom_network.node[28].content_store 	hits[28] 	5030
scalar dtelecom_network.node[28].content_store 	misses[28] 	9289
scalar dtelecom_network.node[28].content_store 	decision_yes[28] 	45
scalar dtelecom_network.node[28].content_store 	decision_no[28] 	9244
scalar dtelecom_network.node[28].content_store 	decision_ratio[28] 	0.0048444396598127
scalar dtelecom_network.node[29].core_layer 	interests[29] 	0
scalar dtelecom_network.node[29].core_layer 	data[29] 	0
scalar dtelecom_network.node[29].content_store 	p_hit[29] 	-nan
scalar dtelecom_network.node[29].content_store 	hits[29] 	0
scalar dtelecom_network.node[29].content_store 	misses[29] 	0
scalar dtelecom_network.node[29].content_store 	decision_yes[29] 	0
scalar dtelecom_network.node[29].content_store 	decision_no[29] 	0
scalar dtelecom_network.node[29].content_store 	decision_ratio[29] 	0
scalar dtelecom_network.node[30].core_layer 	interests[30] 	13386
scalar dtelecom_network.node[30].core_layer 	data[30] 	9356
scalar dtelecom_network.node[30].content_store 	p_hit[30] 	0.3009861048857
scalar dtelecom_network.node[30].content_store 	hits[30] 	4029
scalar dtelecom_network.node[30].content_store 	misses[30] 	9357
scalar dtelecom_network.node[30].content_store 	decision_yes[30] 	56
scalar dtelecom_network.node[30].content_store 	decision_no[30] 	9300
scalar dtelecom_network.node[30].content_store 	decision_ratio[30] 	0.0059854638734502
scalar dtelecom_network.node[31].core_layer 	interests[31] 	13442
scalar dtelecom_network.node[31].core_layer 	data[31] 	9132
scalar dtelecom_network.node[31].content_store 	p_hit[31] 	0.32063680999851
scalar dtelecom_network.node[31].content_store 	hits[31] 	4310
scalar dtelecom_network.node[31].content_store 	misses[31] 	9132
scalar dtelecom_network.node[31].content_store 	decision_yes[31] 	31
scalar dtelecom_network.node[31].content_store 	decision_no[31] 	9101
scalar dtelecom_network.node[31].content_store 	decision_ratio[31] 	0.0033946561541831
scalar dtelecom_network.node[32].core_layer 	interests[32] 	13862
scalar dtelecom_network.node[32].core_layer 	data[32] 	9262
scalar dtelecom_network.node[32].content_store 	p_hit[32] 	0.33184244697735
scalar dtelecom_network.node[32].content_store 	hits[32] 	4600
scalar dtelecom_network.node[32].content_store 	misses[32] 	9262
scalar dtelecom_network.node[32].content_store 	decision_yes[32] 	52
scalar dtelecom_network.node[32].content_store 	decision_no[32] 	9210
scalar dtelecom_network.node[32].content_store 	decision_ratio[32] 	0.0056143381559059
scalar dtelecom_network.node[33].core_layer 	interests[33] 	14206
scalar dtelecom_network.node[33].core_layer 	data[33] 	9070
scalar dtelecom_network.node[33].content_store 	p_hit[33] 	0.36160777136421
scalar dtelecom_network.node[33].content_store 	hits[33] 	5137
scalar dtelecom_network.node[33].content_store 	misses[33] 	9069
scalar dtelecom_network.node[33].content_store 	decision_yes[33] 	46
scalar dtelecom_network.node[33].content_store 	decision_no[33] 	9024
scalar dtelecom_network.node[33].content_store 	decision_ratio[33] 	0.0050716648291069
scalar dtelecom_network.node[34].core_layer 	interests[34] 	0
scalar dtelecom_network.node[34].core_layer 	data[34] 	0
scalar dtelecom_network.node[34].content_store 	p_hit[34] 	-nan
scalar dtelecom_network.node[34].content_store 	hits[34] 	0
scalar dtelecom_network.node[34].content_store 	misses[34] 	0
scalar dtelecom_network.node[34].content_store 	decision_yes[34] 	0
scalar dtelecom_network.node[34].content_store 	decision_no[34] 	0
scalar dtelecom_network.node[34].content_store 	decision_ratio[34] 	0
scalar dtelecom_network.node[35].core_layer 	interests[35] 	0
scalar dtelecom_network.node[35].core_layer 	data[35] 	0
scalar dtelecom_network.node[35].content_store 	p_hit[35] 	-nan
scalar dtelecom_network.node[35].content_store 	hits[35] 	0
scalar dtelecom_network.node[35].content_store 	misses[35] 	0
scalar dtelecom_network.node[35].content_store 	decision_yes[35] 	0
scalar dtelecom_network.node[35].content_store 	decision_no[35] 	0
scalar dtelecom_network.node[35].content_store 	decision_ratio[35] 	0
scalar dtelecom_network.node[36].core_layer 	interests[36] 	13748
scalar dtelecom_network.node[36].core_layer 	data[36] 	9309
scalar dtelecom_network.node[36].content_store 	p_hit[36] 	0.32281059063136
scalar dtelecom_network.node[36].content_store 	hits[36] 	4438
scalar dtelecom_network.node[36].content_store 	misses[36] 	9310
scalar dtelecom_network.node[36].content_store 	decision_yes[36] 	53
scalar dtelecom_network.node[36].content_store 	decision_no[36] 	9256
scalar dtelecom_network.node[36].content_store 	decision_ratio[36] 	0.0056934149747556
scalar dtelecom_network.node[37].core_layer 	interests[37] 	13796
scalar dtelecom_network.node[37].core_layer 	data[37] 	9215
scalar dtelecom_network.node[37].content_store 	p_hit[37] 	0.33198028414033
scalar dtelecom_network.node[37].content_store 	hits[37] 	4580
scalar dtelecom_network.node[37].content_store 	misses[37] 	9216
scalar dtelecom_network.node[37].content_store 	decision_yes[37] 	44
scalar dtelecom_network.node[37].content_store 	decision_no[37] 	9171
scalar dtelecom_network.node[37].content_store 	decision_ratio[37] 	0.0047748236570808
scalar dtelecom_network.node[38].core_layer 	interests[38] 	0
scalar dtelecom_network.node[38].core_layer 	data[38] 	0
scalar dtelecom_network.node[38].content_store 	p_hit[38] 	-nan
scalar dtelecom_network.node[38].content_store 	hits[38] 	0
scalar dtelecom_network.node[38].content_store 	misses[38] 	0
scalar dtelecom_network.node[38].content_store 	decision_yes[38] 	0
scalar dtelecom_network.node[38].content_store 	decision_no[38] 	0
scalar dtelecom_network.node[38].content_store 	decision_ratio[38] 	0
scalar dtelecom_network.node[39].core_layer 	interests[39] 	13004
scalar dtelecom_network.node[39].core_layer 	repo_load[39] 	11176
scalar dtelecom_network.node[39].core_layer 	data[39] 	0
scalar dtelecom_network.node[39].content_store 	p_hit[39] 	0.1405721316518
scalar dtelecom_network.node[39].content_store 	hits[39] 	1828
scalar dtelecom_network.node[39].content_store 	misses[39] 	11176
scalar dtelecom_network.node[39].content_store 	decision_yes[39] 	52
scalar dtelecom_network.node[39].content_store 	decision_no[39] 	11124
scalar dtelecom_network.node[39].content_store 	decision_ratio[39] 	0.0046528274874732
scalar dtelecom_network.node[40].core_layer 	interests[40] 	15427
scalar dtelecom_network.node[40].core_layer 	data[40] 	9692
scalar dtelecom_network.node[40].content_store 	p_hit[40] 	0.37168600505607
scalar dtelecom_network.node[40].content_store 	hits[40] 	5734
scalar dtelecom_network.node[40].content_store 	misses[40] 	9693
scalar dtelecom_network.node[40].content_store 	decision_yes[40] 	55
scalar dtelecom_network.node[40].content_store 	decision_no[40] 	9637
scalar dtelecom_network.node[40].content_store 	decision_ratio[40] 	0.0056747833264548
scalar dtelecom_network.node[41].core_layer 	interests[41] 	0
scalar dtelecom_network.node[41].core_layer 	data[41] 	0
scalar dtelecom_network.node[41].content_store 	p_hit[41] 	-nan
scalar dtelecom_network.node[41].content_store 	hits[41] 	0
scalar dtelecom_network.node[41].content_store 	misses[41] 	0
scalar dtelecom_network.node[41].content_store 	decision_yes[41] 	0
scalar dtelecom_network.node[41].content_store 	decision_no[41] 	0
scalar dtelecom_network.node[41].content_store 	decision_ratio[41] 	0
scalar dtelecom_network.node[42].core_layer 	interests[42] 	25341
scalar dtelecom_network.node[42].core_layer 	repo_load[42] 	12403
scalar dtelecom_network.node[42].core_layer 	data[42] 	8843
scalar dtelecom_network.node[42].content_store 	p_hit[42] 	0.16155637109822
scalar dtelecom_network.node[42].content_store 	hits[42] 	4094
scalar dtelecom_network.node[42].content_store 	misses[42] 	21247
scalar dtelecom_network.node[42].content_store 	decision_yes[42] 	93
scalar dtelecom_network.node[42].content_store 	decision_no[42] 	21153
scalar dtelecom_network.node[42].content_store 	decision_ratio[42] 	0.0043772945495623
scalar dtelecom_network.node[43].core_layer 	interests[43] 	0
scalar dtelecom_network.node[43].core_layer 	data[43] 	0
scalar dtelecom_network.node[43].content_store 	p_hit[43] 	-nan
scalar dtelecom_network.node[43].content_store 	hits[43] 	0
scalar dtelecom_network.node[43].content_store 	misses[43] 	0
scalar dtelecom_network.node[43].content_store 	decision_yes[43] 	0
scalar dtelecom_network.node[43].content_store 	decision_no[43] 	0
scalar dtelecom_network.node[43].content_store 	decision_ratio[43] 	0
scalar dtelecom_network.node[44].core_layer 	interests[44] 	12105
scalar dtelecom_network.node[44].core_layer 	repo_load[44] 	10453
scalar dtelecom_network.node[44].core_layer 	data[44] 	0
scalar dtelecom_network.node[44].content_store 	p_hit[44] 	0.13647253201157
scalar dtelecom_network.node[44].content_store 	hits[44] 	1652
scalar dtelecom_network.node[44].content_store 	misses[44] 	10453
scalar dtelecom_network.node[44].content_store 	decision_yes[44] 	51
scalar dtelecom_network.node[44].content_store 	decision_no[44] 	10402
scalar dtelecom_network.node[44].content_store 	decision_ratio[44] 	0.0048789821103989
scalar dtelecom_network.node[45].core_layer 	interests[45] 	13774
scalar dtelecom_network.node[45].core_layer 	data[45] 	9082
scalar dtelecom_network.node[45].content_store 	p_hit[45] 	0.34056918832583
scalar dtelecom_network.node[45].content_store 	hits[45] 	4691
scalar dtelecom_network.node[45].content_store 	misses[45] 	9083
scalar dtelecom_network.node[45].content_store 	decision_yes[45] 	50
scalar dtelecom_network.node[45].content_store 	decision_no[45] 	9032
scalar dtelecom_network.node[45].content_store 	decision_ratio[45] 	0.0055053952873816
scalar dtelecom_network.node[46].core_layer 	interests[46] 	14102
scalar dtelecom_network.node[46].core_layer 	data[46] 	9435
scalar dtelecom_network.node[46].content_store 	p_hit[46] 	0.33080414125656
scalar dtelecom_network.node[46].content_store 	hits[46] 	4665
scalar dtelecom_network.node[46].content_store 	misses[46] 	9437
scalar dtelecom_network.node[46].content_store 	decision_yes[46] 	40
scalar dtelecom_network.node[46].content_store 	decision_no[46] 	9395
scalar dtelecom_network.node[46].content_store 	decision_ratio[46] 	0.0042395336512984
scalar dtelecom_network.node[47].core_layer 	interests[47] 	13511
scalar dtelecom_network.node[47].core_layer 	repo_load[47] 	11367
scalar dtelecom_network.node[47].core_layer 	data[47] 	0
scalar dtelecom_network.node[47].content_store 	p_hit[47] 	0.15868551550588
scalar dtelecom_network.node[47].content_store 	hits[47] 	2144
scalar dtelecom_network.node[47].content_store 	misses[47] 	11367
scalar dtelecom_network.node[47].content_store 	decision_yes[47] 	43
scalar dtelecom_network.node[47].content_store 	decision_no[47] 	11324
scalar dtelecom_network.node[47].content_store 	decision_ratio[47] 	0.0037828802674408
scalar dtelecom_network.node[48].core_layer 	interests[48] 	25087
scalar dtelecom_network.node[48].core_layer 	repo_load[48] 	12061
scalar dtelecom_network.node[48].core_layer 	data[48] 	8775
scalar dtelecom_network.node[48].content_store 	p_hit[48] 	0.16949017419381
scalar dtelecom_network.node[48].content_store 	hits[48] 	4252
scalar dtelecom_network.node[48].content_store 	misses[48] 	20835
scalar dtelecom_network.node[48].content_store 	decision_yes[48] 	119
scalar dtelecom_network.node[48].content_store 	decision_no[48] 	20717
scalar dtelecom_network.node[48].content_store 	decision_ratio[48] 	0.0057112689575734
scalar dtelecom_network.node[49].core_layer 	interests[49] 	13971
scalar dtelecom_network.node[49].core_layer 	data[49] 	9434
scalar dtelecom_network.node[49].content_store 	p_hit[49] 	0.32452938229189
scalar dtelecom_network.node[49].content_store 	hits[49] 	4534
scalar dtelecom_network.node[49].content_store 	misses[49] 	9437
scalar dtelecom_network.node[49].content_store 	decision_yes[49] 	43
scalar dtelecom_network.node[49].content_store 	decision_no[49] 	9391
scalar dtelecom_network.node[49].content_store 	decision_ratio[49] 	0.0045579817680729
scalar dtelecom_network.node[50].core_layer 	interests[50] 	13603
scalar dtelecom_network.node[50].core_layer 	data[50] 	9318
scalar dtelecom_network.node[50].content_store 	p_hit[50] 	0.31507755642138
scalar dtelecom_network.node[50].content_store 	hits[50] 	4286
scalar dtelecom_network.node[50].content_store 	misses[50] 	9317
scalar dtelecom_network.node[50].content_store 	decision_yes[50] 	49
scalar dtelecom_network.node[50].content_store 	decision_no[50] 	9269
scalar dtelecom_network.node[50].content_store 	decision_ratio[50] 	0.0052586391929599
scalar dtelecom_network.node[51].core_layer 	interests[51] 	14282
scalar dtelecom_network.node[51].core_layer 	data[51] 	9239
scalar dtelecom_network.node[51].content_store 	p_hit[51] 	0.35310180646968
scalar dtelecom_network.node[51].content_store 	hits[51] 	5043
scalar dtelecom_network.node[51].content_store 	misses[51] 	9239
scalar dtelecom_network.node[51].content_store 	decision_yes[51] 	42
scalar dtelecom_network.node[51].content_store 	decision_no[51] 	9197
scalar dtelecom_network.node[51].content_store 	decision_ratio[51] 	0.0045459465310098
scalar dtelecom_network.node[52].core_layer 	interests[52] 	0
scalar dtelecom_network.node[52].core_layer 	data[52] 	0
scalar dtelecom_network.node[52].content_store 	p_hit[52] 	-nan
scalar dtelecom_network.node[52].content_store 	hits[52] 	0
scalar dtelecom_network.node[52].content_store 	misses[52] 	0
scalar dtelecom_network.node[52].content_store 	decision_yes[52] 	0
scalar dtelecom_network.node[52].content_store 	decision_no[52] 	0
scalar dtelecom_network.node[52].content_store 	decision_ratio[52] 	0
scalar dtelecom_network.node[53].core_layer 	interests[53] 	13806
scalar dtelecom_network.node[53].core_layer 	data[53] 	9331
scalar dtelecom_network.node[53].content_store 	p_hit[53] 	0.32420686657975
scalar dtelecom_network.node[53].content_store 	hits[53] 	4476
scalar dtelecom_network.node[53].content_store 	misses[53] 	9330
scalar dtelecom_network.node[53].content_store 	decision_yes[53] 	50
scalar dtelecom_network.node[53].content_store 	decision_no[53] 	9281
scalar dtelecom_network.node[53].content_store 	decision_ratio[53] 	0.0053584824777623
scalar dtelecom_network.node[54].core_layer 	interests[54] 	14353
scalar dtelecom_network.node[54].core_layer 	data[54] 	9532
scalar dtelecom_network.node[54].content_store 	p_hit[54] 	0.33567895213544
scalar dtelecom_network.node[54].content_store 	hits[54] 	4818
scalar dtelecom_network.node[54].content_store 	misses[54] 	9535
scalar dtelecom_network.node[54].content_store 	decision_yes[54] 	44
scalar dtelecom_network.node[54].content_store 	decision_no[54] 	9488
scalar dtelecom_network.node[54].content_store 	decision_ratio[54] 	0.0046160302140159
scalar dtelecom_network.node[55].core_layer 	interests[55] 	25773
scalar dtelecom_network.node[55].core_layer 	repo_load[55] 	12520
scalar dtelecom_network.node[55].core_layer 	data[55] 	8776
scalar dtelecom_network.node[55].content_store 	p_hit[55] 	0.17370892018779
scalar dtelecom_network.node[55].content_store 	hits[55] 	4477
scalar dtelecom_network.node[55].content_store 	misses[55] 	21296
scalar dtelecom_network.node[55].content_store 	decision_yes[55] 	127
scalar dtelecom_network.node[55].content_store 	decision_no[55] 	21169
scalar dtelecom_network.node[55].content_store 	decision_ratio[55] 	0.0059635612321563
scalar dtelecom_network.node[56].core_layer 	interests[56] 	14062
scalar dtelecom_network.node[56].core_layer 	data[56] 	9483
scalar dtelecom_network.node[56].content_store 	p_hit[56] 	0.32541601479164
scalar dtelecom_network.node[56].content_store 	hits[56] 	4576
scalar dtelecom_network.node[56].content_store 	misses[56] 	9486
scalar dtelecom_network.node[56].content_store 	decision_yes[56] 	49
scalar dtelecom_network.node[56].content_store 	decision_no[56] 	9434
scalar dtelecom_network.node[56].content_store 	decision_ratio[56] 	0.0051671412000422
scalar dtelecom_network.node[57].core_layer 	interests[57] 	24511
scalar dtelecom_network.node[57].core_layer 	repo_load[57] 	11641
scalar dtelecom_network.node[57].core_layer 	data[57] 	8758
scalar dtelecom_network.node[57].content_store 	p_hit[57] 	0.16767981722492
scalar dtelecom_network.node[57].content_store 	hits[57] 	4110
scalar dtelecom_network.node[57].content_store 	misses[57] 	20401
scalar dtelecom_network.node[57].content_store 	decision_yes[57] 	107
scalar dtelecom_network.node[57].content_store 	decision_no[57] 	20292
scalar dtelecom_network.node[57].content_store 	decision_ratio[57] 	0.0052453551644688
scalar dtelecom_network.node[58].core_layer 	interests[58] 	13443
scalar dtelecom_network.node[58].core_layer 	data[58] 	9088
scalar dtelecom_network.node[58].content_store 	p_hit[58] 	0.32388603734286
scalar dtelecom_network.node[58].content_store 	hits[58] 	4354
scalar dtelecom_network.node[58].content_store 	misses[58] 	9089
scalar dtelecom_network.node[58].content_store 	decision_yes[58] 	40
scalar dtelecom_network.node[58].content_store 	decision_no[58] 	9048
scalar dtelecom_network.node[58].content_store 	decision_ratio[58] 	0.0044014084507042
scalar dtelecom_network.node[59].core_layer 	interests[59] 	15212
scalar dtelecom_network.node[59].core_layer 	data[59] 	8941
scalar dtelecom_network.node[59].content_store 	p_hit[59] 	0.41204312384959
scalar dtelecom_network.node[59].content_store 	hits[59] 	6268
scalar dtelecom_network.node[59].content_store 	misses[59] 	8944
scalar dtelecom_network.node[59].content_store 	decision_yes[59] 	43
scalar dtelecom_network.node[59].content_store 	decision_no[59] 	8898
scalar dtelecom_network.node[59].content_store 	decision_ratio[59] 	0.004809305446818
scalar dtelecom_network.node[60].core_layer 	interests[60] 	0
scalar dtelecom_network.node[60].core_layer 	data[60] 	0
scalar dtelecom_network.node[60].content_store 	p_hit[60] 	-nan
scalar dtelecom_network.node[60].content_store 	hits[60] 	0
scalar dtelecom_network.node[60].content_store 	misses[60] 	0
scalar dtelecom_network.node[60].content_store 	decision_yes[60] 	0
scalar dtelecom_network.node[60].content_store 	decision_no[60] 	0
scalar dtelecom_network.node[60].content_store 	decision_ratio[60] 	0
scalar dtelecom_network.node[61].core_layer 	interests[61] 	0
scalar dtelecom_network.node[61].core_layer 	data[61] 	0
scalar dtelecom_network.node[61].content_store 	p_hit[61] 	-nan
scalar dtelecom_network.node[61].content_store 	hits[61] 	0
scalar dtelecom_network.node[61].content_store 	misses[61] 	0
scalar dtelecom_network.node[61].content_store 	decision_yes[61] 	0
scalar dtelecom_network.node[61].content_store 	decision_no[61] 	0
scalar dtelecom_network.node[61].content_store 	decision_ratio[61] 	0
scalar dtelecom_network.node[62].core_layer 	interests[62] 	12702
scalar dtelecom_network.node[62].core_layer 	data[62] 	8971
scalar dtelecom_network.node[62].content_store 	p_hit[62] 	0.29373327035113
scalar dtelecom_network.node[62].content_store 	hits[62] 	3731
scalar dtelecom_network.node[62].content_store 	misses[62] 	8971
scalar dtelecom_network.node[62].content_store 	decision_yes[62] 	36
scalar dtelecom_network.node[62].content_store 	decision_no[62] 	8935
scalar dtelecom_network.node[62].content_store 	decision_ratio[62] 	0.0040129305540074
scalar dtelecom_network.node[63].core_layer 	interests[63] 	0
scalar dtelecom_network.node[63].core_layer 	data[63] 	0
scalar dtelecom_network.node[63].content_store 	p_hit[63] 	-nan
scalar dtelecom_network.node[63].content_store 	hits[63] 	0
scalar dtelecom_network.node[63].content_store 	misses[63] 	0
scalar dtelecom_network.node[63].content_store 	decision_yes[63] 	0
scalar dtelecom_network.node[63].content_store 	decision_no[63] 	0
scalar dtelecom_network.node[63].content_store 	decision_ratio[63] 	0
scalar dtelecom_network.node[64].core_layer 	interests[64] 	0
scalar dtelecom_network.node[64].core_layer 	data[64] 	0
scalar dtelecom_network.node[64].content_store 	p_hit[64] 	-nan
scalar dtelecom_network.node[64].content_store 	hits[64] 	0
scalar dtelecom_network.node[64].content_store 	misses[64] 	0
scalar dtelecom_network.node[64].content_store 	decision_yes[64] 	0
scalar dtelecom_network.node[64].content_store 	decision_no[64] 	0
scalar dtelecom_network.node[64].content_store 	decision_ratio[64] 	0
scalar dtelecom_network.node[65].core_layer 	interests[65] 	231
scalar dtelecom_network.node[65].core_layer 	data[65] 	47
scalar dtelecom_network.node[65].content_store 	p_hit[65] 	0.7965367965368
scalar dtelecom_network.node[65].content_store 	hits[65] 	184
scalar dtelecom_network.node[65].content_store 	misses[65] 	47
scalar dtelecom_network.node[65].content_store 	decision_yes[65] 	0
scalar dtelecom_network.node[65].content_store 	decision_no[65] 	47
scalar dtelecom_network.node[65].content_store 	decision_ratio[65] 	0
scalar dtelecom_network.node[66].core_layer 	interests[66] 	13484
scalar dtelecom_network.node[66].core_layer 	data[66] 	9329
scalar dtelecom_network.node[66].content_store 	p_hit[66] 	0.30784633639869
scalar dtelecom_network.node[66].content_store 	hits[66] 	4151
scalar dtelecom_network.node[66].content_store 	misses[66] 	9333
scalar dtelecom_network.node[66].content_store 	decision_yes[66] 	61
scalar dtelecom_network.node[66].content_store 	decision_no[66] 	9268
scalar dtelecom_network.node[66].content_store 	decision_ratio[66] 	0.0065387501339908
scalar dtelecom_network.node[67].core_layer 	interests[67] 	24817
scalar dtelecom_network.node[67].core_layer 	repo_load[67] 	12019
scalar dtelecom_network.node[67].core_layer 	data[67] 	8966
scalar dtelecom_network.node[67].content_store 	p_hit[67] 	0.15416851351896
scalar dtelecom_network.node[67].content_store 	hits[67] 	3826
scalar dtelecom_network.node[67].content_store 	misses[67] 	20991
scalar dtelecom_network.node[67].content_store 	decision_yes[67] 	128
scalar dtelecom_network.node[67].content_store 	decision_no[67] 	20857
scalar dtelecom_network.node[67].content_store 	decision_ratio[67] 	0.0060995949487729
scalar dtelecom_network.client[3] 	hdistance[3] 	1.2922023710135
scalar dtelecom_network.client[3] 	downloads[3] 	11978
scalar dtelecom_network.client[3] 	avg_time[3] 	0.009725621183
scalar dtelecom_network.client[4] 	hdistance[4] 	1.3273230459577
scalar dtelecom_network.client[4] 	downloads[4] 	11924
scalar dtelecom_network.client[4] 	avg_time[4] 	0.052007754173
scalar dtelecom_network.client[8] 	hdistance[8] 	1.8219315057079
scalar dtelecom_network.client[8] 	downloads[8] 	12001
scalar dtelecom_network.client[8] 	avg_time[8] 	0.014308475391
scalar dtelecom_network.client[9] 	hdistance[9] 	1.7369251203719
scalar dtelecom_network.client[9] 	downloads[9] 	12046
scalar dtelecom_network.client[9] 	avg_time[9] 	0.014724866568
scalar dtelecom_network.client[17] 	hdistance[17] 	1.7923456171137
scalar dtelecom_network.client[17] 	downloads[17] 	11967
scalar dtelecom_network.client[17] 	avg_time[17] 	0.013376688252
scalar dtelecom_network.client[22] 	hdistance[22] 	1.8531526320139
scalar dtelecom_network.client[22] 	downloads[22] 	12101
scalar dtelecom_network.client[22] 	avg_time[22] 	0.014923268662
scalar dtelecom_network.client[23] 	hdistance[23] 	1.703496620212
scalar dtelecom_network.client[23] 	downloads[23] 	11983
scalar dtelecom_network.client[23] 	avg_time[23] 	0.012846489404
scalar dtelecom_network.client[28] 	hdistance[28] 	1.8360601278964
scalar dtelecom_network.client[28] 	downloads[28] 	12041
scalar dtelecom_network.client[28] 	avg_time[28] 	0.01667987363
scalar dtelecom_network.client[30] 	hdistance[30] 	1.8645807466269
scalar dtelecom_network.client[30] 	downloads[30] 	12081
scalar dtelecom_network.client[30] 	avg_time[30] 	0.014824603018
scalar dtelecom_network.client[31] 	hdistance[31] 	1.8456336123087
scalar dtelecom_network.client[31] 	downloads[31] 	11829
scalar dtelecom_network.client[31] 	avg_time[31] 	0.016522469575
scalar dtelecom_network.client[32] 	hdistance[32] 	1.8632759784076
scalar dtelecom_network.client[32] 	downloads[32] 	11856
scalar dtelecom_network.client[32] 	avg_time[32] 	0.013299643606
scalar dtelecom_network.client[33] 	hdistance[33] 	1.7584667228307
scalar dtelecom_network.client[33] 	downloads[33] 	11870
scalar dtelecom_network.client[33] 	avg_time[33] 	0.013213485191
scalar dtelecom_network.client[36] 	hdistance[36] 	1.8336338305196
scalar dtelecom_network.client[36] 	downloads[36] 	12202
scalar dtelecom_network.client[36] 	avg_time[36] 	0.014040349049
scalar dtelecom_network.client[37] 	hdistance[37] 	1.8213833291107
scalar dtelecom_network.client[37] 	downloads[37] 	11841
scalar dtelecom_network.client[37] 	avg_time[37] 	0.014647887927
scalar dtelecom_network.client[40] 	hdistance[40] 	1.6599301397206
scalar dtelecom_network.client[40] 	downloads[40] 	12024
scalar dtelecom_network.client[40] 	avg_time[40] 	0.013963991293
scalar dtelecom_network.client[42] 	hdistance[42] 	1.8341549001587
scalar dtelecom_network.client[42] 	downloads[42] 	11969
scalar dtelecom_network.client[42] 	avg_time[42] 	0.015336806793
scalar dtelecom_network.client[45] 	hdistance[45] 	1.8354473482591
scalar dtelecom_network.client[45] 	downloads[45] 	11747
scalar dtelecom_network.client[45] 	avg_time[45] 	0.014654012667
scalar dtelecom_network.client[46] 	hdistance[46] 	1.8369787826657
scalar dtelecom_network.client[46] 	downloads[46] 	12207
scalar dtelecom_network.client[46] 	avg_time[46] 	0.016350920484
scalar dtelecom_network.client[48] 	hdistance[48] 	1.8422518568535
scalar dtelecom_network.client[48] 	downloads[48] 	11848
scalar dtelecom_network.client[48] 	avg_time[48] 	0.014730392279
scalar dtelecom_network.client[49] 	hdistance[49] 	1.8605800922874
scalar dtelecom_network.client[49] 	downloads[49] 	12136
scalar dtelecom_network.client[49] 	avg_time[49] 	0.013803866633
scalar dtelecom_network.client[50] 	hdistance[50] 	1.8333884024451
scalar dtelecom_network.client[50] 	downloads[50] 	12106
scalar dtelecom_network.client[50] 	avg_time[50] 	0.013977050968
scalar dtelecom_network.client[51] 	hdistance[51] 	1.7756606743435
scalar dtelecom_network.client[51] 	downloads[51] 	12071
scalar dtelecom_network.client[51] 	avg_time[51] 	0.013536297361
scalar dtelecom_network.client[53] 	hdistance[53] 	1.8574385296796
scalar dtelecom_network.client[53] 	downloads[53] 	12079
scalar dtelecom_network.client[53] 	avg_time[53] 	0.013422563266
scalar dtelecom_network.client[54] 	hdistance[54] 	1.783737726203
scalar dtelecom_network.client[54] 	downloads[54] 	12323
scalar dtelecom_network.client[54] 	avg_time[54] 	0.014781290903
scalar dtelecom_network.client[55] 	hdistance[55] 	1.7636303191489
scalar dtelecom_network.client[55] 	downloads[55] 	12032
scalar dtelecom_network.client[55] 	avg_time[55] 	0.01757044042
scalar dtelecom_network.client[56] 	hdistance[56] 	1.8377502700008
scalar dtelecom_network.client[56] 	downloads[56] 	12037
scalar dtelecom_network.client[56] 	avg_time[56] 	0.014254068362
scalar dtelecom_network.client[57] 	hdistance[57] 	1.7754091481326
scalar dtelecom_network.client[57] 	downloads[57] 	11915
scalar dtelecom_network.client[57] 	avg_time[57] 	0.012809312977
scalar dtelecom_network.client[58] 	hdistance[58] 	1.8323368421053
scalar dtelecom_network.client[58] 	downloads[58] 	11875
scalar dtelecom_network.client[58] 	avg_time[58] 	0.016489560491
scalar dtelecom_network.client[59] 	hdistance[59] 	1.7955930222853
scalar dtelecom_network.client[59] 	downloads[59] 	11981
scalar dtelecom_network.client[59] 	avg_time[59] 	0.057472652026
scalar dtelecom_network.client[62] 	hdistance[62] 	2.3284513605725
scalar dtelecom_network.client[62] 	downloads[62] 	12017
scalar dtelecom_network.client[62] 	avg_time[62] 	0.05959270621
scalar dtelecom_network.client[66] 	hdistance[66] 	1.9919055092095
scalar dtelecom_network.client[66] 	downloads[66] 	12107
scalar dtelecom_network.client[66] 	avg_time[66] 	0.093219143054
scalar dtelecom_network.client[67] 	hdistance[67] 	1.9467515070328
scalar dtelecom_network.client[67] 	downloads[67] 	11944
scalar dtelecom_network.client[67] 	avg_time[67] 	0.07522989698
