version 2
run General-74-20160825-06:48:51-24543
attr D fix0.005
attr F nrr
attr R lru
attr a 0.9
attr configname General
attr datetime 20160825-06:48:51
attr experiment General
attr inifile hw5115/scenario_C/omnetp.ini
attr iterationvars "$net=dtelecom, $rep=9, $a=0.9, $F=nrr, $D=fix0.005, $R=lru, $window=60, $variance=0.05, $mytime=600"
attr iterationvars2 "$net=dtelecom, $rep=9, $a=0.9, $F=nrr, $D=fix0.005, $R=lru, $window=60, $variance=0.05, $mytime=600, $repetition=0"
attr measurement "$net=dtelecom, $rep=9, $a=0.9, $F=nrr, $D=fix0.005, $R=lru, $window=60, $variance=0.05, $mytime=600"
attr mytime 600
attr net dtelecom
attr network networks.${net=dtelecom}_network
attr processid 24543
attr rep 9
attr repetition 0
attr replication #0
attr resultdir results
attr runnumber 74
attr seedset 9
attr variance 0.05
attr window 60

scalar . 	a 	0.9
scalar . 	mytime 	600
scalar . 	rep 	9
scalar . 	variance 	0.05
scalar . 	window 	60
scalar dtelecom_network.content_distribution 	repo-0 	1
scalar dtelecom_network.content_distribution 	repo-1 	5
scalar dtelecom_network.content_distribution 	repo-2 	22
scalar dtelecom_network.content_distribution 	repo-3 	32
scalar dtelecom_network.content_distribution 	repo-4 	3
scalar dtelecom_network.content_distribution 	repo-5 	12
scalar dtelecom_network.content_distribution 	repo-6 	64
scalar dtelecom_network.content_distribution 	repo-7 	51
scalar dtelecom_network.content_distribution 	repo-8 	23
scalar dtelecom_network.content_distribution 	repo-9 	8
scalar dtelecom_network.content_distribution 	repo-10 	24
scalar dtelecom_network.content_distribution 	repo-11 	43
scalar dtelecom_network.content_distribution 	repo-12 	7
scalar dtelecom_network.content_distribution 	repo-13 	45
scalar dtelecom_network.content_distribution 	repo-14 	60
scalar dtelecom_network.content_distribution 	repo-15 	34
scalar dtelecom_network.content_distribution 	client-0 	46
scalar dtelecom_network.content_distribution 	client-1 	30
scalar dtelecom_network.content_distribution 	client-2 	8
scalar dtelecom_network.content_distribution 	client-3 	49
scalar dtelecom_network.content_distribution 	client-4 	66
scalar dtelecom_network.content_distribution 	client-5 	58
scalar dtelecom_network.content_distribution 	client-6 	32
scalar dtelecom_network.content_distribution 	client-7 	40
scalar dtelecom_network.content_distribution 	client-8 	42
scalar dtelecom_network.content_distribution 	client-9 	45
scalar dtelecom_network.content_distribution 	client-10 	33
scalar dtelecom_network.content_distribution 	client-11 	28
scalar dtelecom_network.content_distribution 	client-12 	3
scalar dtelecom_network.content_distribution 	client-13 	57
scalar dtelecom_network.content_distribution 	client-14 	50
scalar dtelecom_network.content_distribution 	client-15 	17
scalar dtelecom_network.content_distribution 	client-16 	59
scalar dtelecom_network.content_distribution 	client-17 	48
scalar dtelecom_network.content_distribution 	client-18 	23
scalar dtelecom_network.content_distribution 	client-19 	22
scalar dtelecom_network.content_distribution 	client-20 	67
scalar dtelecom_network.content_distribution 	client-21 	62
scalar dtelecom_network.content_distribution 	client-22 	56
scalar dtelecom_network.content_distribution 	client-23 	55
scalar dtelecom_network.content_distribution 	client-24 	53
scalar dtelecom_network.content_distribution 	client-25 	36
scalar dtelecom_network.content_distribution 	client-26 	51
scalar dtelecom_network.content_distribution 	client-27 	37
scalar dtelecom_network.content_distribution 	client-28 	54
scalar dtelecom_network.content_distribution 	client-29 	4
scalar dtelecom_network.content_distribution 	client-30 	31
scalar dtelecom_network.content_distribution 	client-31 	9
scalar dtelecom_network.content_distribution 	repo-0_card 	6357
scalar dtelecom_network.content_distribution 	repo-0_price 	0
scalar dtelecom_network.content_distribution 	repo-1_card 	6265
scalar dtelecom_network.content_distribution 	repo-1_price 	0
scalar dtelecom_network.content_distribution 	repo-2_card 	6375
scalar dtelecom_network.content_distribution 	repo-2_price 	0
scalar dtelecom_network.content_distribution 	repo-3_card 	6158
scalar dtelecom_network.content_distribution 	repo-3_price 	0
scalar dtelecom_network.content_distribution 	repo-4_card 	6159
scalar dtelecom_network.content_distribution 	repo-4_price 	0
scalar dtelecom_network.content_distribution 	repo-5_card 	6389
scalar dtelecom_network.content_distribution 	repo-5_price 	0
scalar dtelecom_network.content_distribution 	repo-6_card 	6324
scalar dtelecom_network.content_distribution 	repo-6_price 	0
scalar dtelecom_network.content_distribution 	repo-7_card 	6320
scalar dtelecom_network.content_distribution 	repo-7_price 	0
scalar dtelecom_network.content_distribution 	repo-8_card 	6094
scalar dtelecom_network.content_distribution 	repo-8_price 	0
scalar dtelecom_network.content_distribution 	repo-9_card 	6152
scalar dtelecom_network.content_distribution 	repo-9_price 	0
scalar dtelecom_network.content_distribution 	repo-10_card 	6306
scalar dtelecom_network.content_distribution 	repo-10_price 	0
scalar dtelecom_network.content_distribution 	repo-11_card 	6181
scalar dtelecom_network.content_distribution 	repo-11_price 	0
scalar dtelecom_network.content_distribution 	repo-12_card 	6224
scalar dtelecom_network.content_distribution 	repo-12_price 	0
scalar dtelecom_network.content_distribution 	repo-13_card 	6286
scalar dtelecom_network.content_distribution 	repo-13_price 	0
scalar dtelecom_network.content_distribution 	repo-14_card 	6172
scalar dtelecom_network.content_distribution 	repo-14_price 	0
scalar dtelecom_network.content_distribution 	repo-15_card 	6238
scalar dtelecom_network.content_distribution 	repo-15_price 	0
scalar dtelecom_network.statistics 	stabilization_time 	13721.7
scalar dtelecom_network.statistics 	p_hit 	0.27752172625042
scalar dtelecom_network.statistics 	interests 	12677.882352941
scalar dtelecom_network.statistics 	data 	7046.2205882353
scalar dtelecom_network.statistics 	hdistance 	1.7431554625422
scalar dtelecom_network.statistics 	avg_time 	0.023919498371
scalar dtelecom_network.statistics 	downloads 	382895
scalar dtelecom_network.statistics 	total_cost 	0
scalar dtelecom_network.statistics 	total_replicas 	100000
scalar dtelecom_network.statistics 	inner_hit 	0.50879483931626
scalar dtelecom_network.node[0].core_layer 	interests[0] 	0
scalar dtelecom_network.node[0].core_layer 	data[0] 	0
scalar dtelecom_network.node[0].core_layer 	repo_int[0] 	188080
scalar dtelecom_network.node[0].content_store 	p_hit[0] 	-nan
scalar dtelecom_network.node[0].content_store 	hits[0] 	0
scalar dtelecom_network.node[0].content_store 	misses[0] 	0
scalar dtelecom_network.node[0].content_store 	decision_yes[0] 	0
scalar dtelecom_network.node[0].content_store 	decision_no[0] 	0
scalar dtelecom_network.node[0].content_store 	decision_ratio[0] 	0
scalar dtelecom_network.node[1].core_layer 	interests[1] 	154202
scalar dtelecom_network.node[1].core_layer 	repo_load[1] 	15560
scalar dtelecom_network.node[1].core_layer 	data[1] 	131735
scalar dtelecom_network.node[1].content_store 	p_hit[1] 	0.044688136340644
scalar dtelecom_network.node[1].content_store 	hits[1] 	6891
scalar dtelecom_network.node[1].content_store 	misses[1] 	147311
scalar dtelecom_network.node[1].content_store 	decision_yes[1] 	747
scalar dtelecom_network.node[1].content_store 	decision_no[1] 	146548
scalar dtelecom_network.node[1].content_store 	decision_ratio[1] 	0.0050714552428799
scalar dtelecom_network.node[2].core_layer 	interests[2] 	6362
scalar dtelecom_network.node[2].core_layer 	data[2] 	3364
scalar dtelecom_network.node[2].content_store 	p_hit[2] 	0.4710782772713
scalar dtelecom_network.node[2].content_store 	hits[2] 	2997
scalar dtelecom_network.node[2].content_store 	misses[2] 	3365
scalar dtelecom_network.node[2].content_store 	decision_yes[2] 	11
scalar dtelecom_network.node[2].content_store 	decision_no[2] 	3353
scalar dtelecom_network.node[2].content_store 	decision_ratio[2] 	0.0032699167657551
scalar dtelecom_network.node[3].core_layer 	interests[3] 	45103
scalar dtelecom_network.node[3].core_layer 	repo_load[3] 	12129
scalar dtelecom_network.node[3].core_layer 	data[3] 	19174
scalar dtelecom_network.node[3].content_store 	p_hit[3] 	0.30594417222801
scalar dtelecom_network.node[3].content_store 	hits[3] 	13799
scalar dtelecom_network.node[3].content_store 	misses[3] 	31304
scalar dtelecom_network.node[3].content_store 	decision_yes[3] 	148
scalar dtelecom_network.node[3].content_store 	decision_no[3] 	31155
scalar dtelecom_network.node[3].content_store 	decision_ratio[3] 	0.0047279813436412
scalar dtelecom_network.node[4].core_layer 	interests[4] 	56141
scalar dtelecom_network.node[4].core_layer 	data[4] 	40605
scalar dtelecom_network.node[4].content_store 	p_hit[4] 	0.27601930852675
scalar dtelecom_network.node[4].content_store 	hits[4] 	15496
scalar dtelecom_network.node[4].content_store 	misses[4] 	40645
scalar dtelecom_network.node[4].content_store 	decision_yes[4] 	215
scalar dtelecom_network.node[4].content_store 	decision_no[4] 	40390
scalar dtelecom_network.node[4].content_store 	decision_ratio[4] 	0.0052949144194065
scalar dtelecom_network.node[5].core_layer 	interests[5] 	14671
scalar dtelecom_network.node[5].core_layer 	repo_load[5] 	11315
scalar dtelecom_network.node[5].core_layer 	data[5] 	0
scalar dtelecom_network.node[5].content_store 	p_hit[5] 	0.2287505964147
scalar dtelecom_network.node[5].content_store 	hits[5] 	3356
scalar dtelecom_network.node[5].content_store 	misses[5] 	11315
scalar dtelecom_network.node[5].content_store 	decision_yes[5] 	47
scalar dtelecom_network.node[5].content_store 	decision_no[5] 	11268
scalar dtelecom_network.node[5].content_store 	decision_ratio[5] 	0.00415377817057
scalar dtelecom_network.node[6].core_layer 	interests[6] 	0
scalar dtelecom_network.node[6].core_layer 	data[6] 	0
scalar dtelecom_network.node[6].content_store 	p_hit[6] 	-nan
scalar dtelecom_network.node[6].content_store 	hits[6] 	0
scalar dtelecom_network.node[6].content_store 	misses[6] 	0
scalar dtelecom_network.node[6].content_store 	decision_yes[6] 	0
scalar dtelecom_network.node[6].content_store 	decision_no[6] 	0
scalar dtelecom_network.node[6].content_store 	decision_ratio[6] 	0
scalar dtelecom_network.node[7].core_layer 	interests[7] 	12740
scalar dtelecom_network.node[7].core_layer 	repo_load[7] 	10933
scalar dtelecom_network.node[7].core_layer 	data[7] 	0
scalar dtelecom_network.node[7].content_store 	p_hit[7] 	0.14183673469388
scalar dtelecom_network.node[7].content_store 	hits[7] 	1807
scalar dtelecom_network.node[7].content_store 	misses[7] 	10933
scalar dtelecom_network.node[7].content_store 	decision_yes[7] 	58
scalar dtelecom_network.node[7].content_store 	decision_no[7] 	10875
scalar dtelecom_network.node[7].content_store 	decision_ratio[7] 	0.0053050397877984
scalar dtelecom_network.node[8].core_layer 	interests[8] 	24662
scalar dtelecom_network.node[8].core_layer 	repo_load[8] 	11740
scalar dtelecom_network.node[8].core_layer 	data[8] 	8859
scalar dtelecom_network.node[8].content_store 	p_hit[8] 	0.16474738464034
scalar dtelecom_network.node[8].content_store 	hits[8] 	4063
scalar dtelecom_network.node[8].content_store 	misses[8] 	20599
scalar dtelecom_network.node[8].content_store 	decision_yes[8] 	102
scalar dtelecom_network.node[8].content_store 	decision_no[8] 	20497
scalar dtelecom_network.node[8].content_store 	decision_ratio[8] 	0.0049516966843051
scalar dtelecom_network.node[9].core_layer 	interests[9] 	14644
scalar dtelecom_network.node[9].core_layer 	data[9] 	9154
scalar dtelecom_network.node[9].content_store 	p_hit[9] 	0.37489756897023
scalar dtelecom_network.node[9].content_store 	hits[9] 	5490
scalar dtelecom_network.node[9].content_store 	misses[9] 	9154
scalar dtelecom_network.node[9].content_store 	decision_yes[9] 	55
scalar dtelecom_network.node[9].content_store 	decision_no[9] 	9099
scalar dtelecom_network.node[9].content_store 	decision_ratio[9] 	0.0060083023814726
scalar dtelecom_network.node[10].core_layer 	interests[10] 	0
scalar dtelecom_network.node[10].core_layer 	data[10] 	0
scalar dtelecom_network.node[10].content_store 	p_hit[10] 	-nan
scalar dtelecom_network.node[10].content_store 	hits[10] 	0
scalar dtelecom_network.node[10].content_store 	misses[10] 	0
scalar dtelecom_network.node[10].content_store 	decision_yes[10] 	0
scalar dtelecom_network.node[10].content_store 	decision_no[10] 	0
scalar dtelecom_network.node[10].content_store 	decision_ratio[10] 	0
scalar dtelecom_network.node[11].core_layer 	interests[11] 	0
scalar dtelecom_network.node[11].core_layer 	data[11] 	0
scalar dtelecom_network.node[11].content_store 	p_hit[11] 	-nan
scalar dtelecom_network.node[11].content_store 	hits[11] 	0
scalar dtelecom_network.node[11].content_store 	misses[11] 	0
scalar dtelecom_network.node[11].content_store 	decision_yes[11] 	0
scalar dtelecom_network.node[11].content_store 	decision_no[11] 	0
scalar dtelecom_network.node[11].content_store 	decision_ratio[11] 	0
scalar dtelecom_network.node[12].core_layer 	interests[12] 	13563
scalar dtelecom_network.node[12].core_layer 	repo_load[12] 	11671
scalar dtelecom_network.node[12].core_layer 	data[12] 	0
scalar dtelecom_network.node[12].content_store 	p_hit[12] 	0.13949716139497
scalar dtelecom_network.node[12].content_store 	hits[12] 	1892
scalar dtelecom_network.node[12].content_store 	misses[12] 	11671
scalar dtelecom_network.node[12].content_store 	decision_yes[12] 	58
scalar dtelecom_network.node[12].content_store 	decision_no[12] 	11613
scalar dtelecom_network.node[12].content_store 	decision_ratio[12] 	0.0049695827264159
scalar dtelecom_network.node[13].core_layer 	interests[13] 	0
scalar dtelecom_network.node[13].core_layer 	data[13] 	0
scalar dtelecom_network.node[13].content_store 	p_hit[13] 	-nan
scalar dtelecom_network.node[13].content_store 	hits[13] 	0
scalar dtelecom_network.node[13].content_store 	misses[13] 	0
scalar dtelecom_network.node[13].content_store 	decision_yes[13] 	0
scalar dtelecom_network.node[13].content_store 	decision_no[13] 	0
scalar dtelecom_network.node[13].content_store 	decision_ratio[13] 	0
scalar dtelecom_network.node[14].core_layer 	interests[14] 	0
scalar dtelecom_network.node[14].core_layer 	data[14] 	0
scalar dtelecom_network.node[14].content_store 	p_hit[14] 	-nan
scalar dtelecom_network.node[14].content_store 	hits[14] 	0
scalar dtelecom_network.node[14].content_store 	misses[14] 	0
scalar dtelecom_network.node[14].content_store 	decision_yes[14] 	0
scalar dtelecom_network.node[14].content_store 	decision_no[14] 	0
scalar dtelecom_network.node[14].content_store 	decision_ratio[14] 	0
scalar dtelecom_network.node[15].core_layer 	interests[15] 	0
scalar dtelecom_network.node[15].core_layer 	data[15] 	0
scalar dtelecom_network.node[15].content_store 	p_hit[15] 	-nan
scalar dtelecom_network.node[15].content_store 	hits[15] 	0
scalar dtelecom_network.node[15].content_store 	misses[15] 	0
scalar dtelecom_network.node[15].content_store 	decision_yes[15] 	0
scalar dtelecom_network.node[15].content_store 	decision_no[15] 	0
scalar dtelecom_network.node[15].content_store 	decision_ratio[15] 	0
scalar dtelecom_network.node[16].core_layer 	interests[16] 	0
scalar dtelecom_network.node[16].core_layer 	data[16] 	0
scalar dtelecom_network.node[16].content_store 	p_hit[16] 	-nan
scalar dtelecom_network.node[16].content_store 	hits[16] 	0
scalar dtelecom_network.node[16].content_store 	misses[16] 	0
scalar dtelecom_network.node[16].content_store 	decision_yes[16] 	0
scalar dtelecom_network.node[16].content_store 	decision_no[16] 	0
scalar dtelecom_network.node[16].content_store 	decision_ratio[16] 	0
scalar dtelecom_network.node[17].core_layer 	interests[17] 	14414
scalar dtelecom_network.node[17].core_layer 	data[17] 	9781
scalar dtelecom_network.node[17].content_store 	p_hit[17] 	0.32128486193978
scalar dtelecom_network.node[17].content_store 	hits[17] 	4631
scalar dtelecom_network.node[17].content_store 	misses[17] 	9783
scalar dtelecom_network.node[17].content_store 	decision_yes[17] 	48
scalar dtelecom_network.node[17].content_store 	decision_no[17] 	9733
scalar dtelecom_network.node[17].content_store 	decision_ratio[17] 	0.0049074736734485
scalar dtelecom_network.node[18].core_layer 	interests[18] 	0
scalar dtelecom_network.node[18].core_layer 	data[18] 	0
scalar dtelecom_network.node[18].content_store 	p_hit[18] 	-nan
scalar dtelecom_network.node[18].content_store 	hits[18] 	0
scalar dtelecom_network.node[18].content_store 	misses[18] 	0
scalar dtelecom_network.node[18].content_store 	decision_yes[18] 	0
scalar dtelecom_network.node[18].content_store 	decision_no[18] 	0
scalar dtelecom_network.node[18].content_store 	decision_ratio[18] 	0
scalar dtelecom_network.node[19].core_layer 	interests[19] 	0
scalar dtelecom_network.node[19].core_layer 	data[19] 	0
scalar dtelecom_network.node[19].content_store 	p_hit[19] 	-nan
scalar dtelecom_network.node[19].content_store 	hits[19] 	0
scalar dtelecom_network.node[19].content_store 	misses[19] 	0
scalar dtelecom_network.node[19].content_store 	decision_yes[19] 	0
scalar dtelecom_network.node[19].content_store 	decision_no[19] 	0
scalar dtelecom_network.node[19].content_store 	decision_ratio[19] 	0
scalar dtelecom_network.node[20].core_layer 	interests[20] 	0
scalar dtelecom_network.node[20].core_layer 	data[20] 	0
scalar dtelecom_network.node[20].content_store 	p_hit[20] 	-nan
scalar dtelecom_network.node[20].content_store 	hits[20] 	0
scalar dtelecom_network.node[20].content_store 	misses[20] 	0
scalar dtelecom_network.node[20].content_store 	decision_yes[20] 	0
scalar dtelecom_network.node[20].content_store 	decision_no[20] 	0
scalar dtelecom_network.node[20].content_store 	decision_ratio[20] 	0
scalar dtelecom_network.node[21].core_layer 	interests[21] 	0
scalar dtelecom_network.node[21].core_layer 	data[21] 	0
scalar dtelecom_network.node[21].content_store 	p_hit[21] 	-nan
scalar dtelecom_network.node[21].content_store 	hits[21] 	0
scalar dtelecom_network.node[21].content_store 	misses[21] 	0
scalar dtelecom_network.node[21].content_store 	decision_yes[21] 	0
scalar dtelecom_network.node[21].content_store 	decision_no[21] 	0
scalar dtelecom_network.node[21].content_store 	decision_ratio[21] 	0
scalar dtelecom_network.node[22].core_layer 	interests[22] 	25121
scalar dtelecom_network.node[22].core_layer 	repo_load[22] 	12010
scalar dtelecom_network.node[22].core_layer 	data[22] 	8908
scalar dtelecom_network.node[22].content_store 	p_hit[22] 	0.16719079654472
scalar dtelecom_network.node[22].content_store 	hits[22] 	4200
scalar dtelecom_network.node[22].content_store 	misses[22] 	20921
scalar dtelecom_network.node[22].content_store 	decision_yes[22] 	106
scalar dtelecom_network.node[22].content_store 	decision_no[22] 	20812
scalar dtelecom_network.node[22].content_store 	decision_ratio[22] 	0.005067406061765
scalar dtelecom_network.node[23].core_layer 	interests[23] 	37760
scalar dtelecom_network.node[23].core_layer 	repo_load[23] 	11554
scalar dtelecom_network.node[23].core_layer 	data[23] 	19093
scalar dtelecom_network.node[23].content_store 	p_hit[23] 	0.18824152542373
scalar dtelecom_network.node[23].content_store 	hits[23] 	7108
scalar dtelecom_network.node[23].content_store 	misses[23] 	30652
scalar dtelecom_network.node[23].content_store 	decision_yes[23] 	157
scalar dtelecom_network.node[23].content_store 	decision_no[23] 	30490
scalar dtelecom_network.node[23].content_store 	decision_ratio[23] 	0.0051228505237054
scalar dtelecom_network.node[24].core_layer 	interests[24] 	13044
scalar dtelecom_network.node[24].core_layer 	repo_load[24] 	11317
scalar dtelecom_network.node[24].core_layer 	data[24] 	0
scalar dtelecom_network.node[24].content_store 	p_hit[24] 	0.13239803741184
scalar dtelecom_network.node[24].content_store 	hits[24] 	1727
scalar dtelecom_network.node[24].content_store 	misses[24] 	11317
scalar dtelecom_network.node[24].content_store 	decision_yes[24] 	57
scalar dtelecom_network.node[24].content_store 	decision_no[24] 	11260
scalar dtelecom_network.node[24].content_store 	decision_ratio[24] 	0.0050366704957144
scalar dtelecom_network.node[25].core_layer 	interests[25] 	0
scalar dtelecom_network.node[25].core_layer 	data[25] 	0
scalar dtelecom_network.node[25].content_store 	p_hit[25] 	-nan
scalar dtelecom_network.node[25].content_store 	hits[25] 	0
scalar dtelecom_network.node[25].content_store 	misses[25] 	0
scalar dtelecom_network.node[25].content_store 	decision_yes[25] 	0
scalar dtelecom_network.node[25].content_store 	decision_no[25] 	0
scalar dtelecom_network.node[25].content_store 	decision_ratio[25] 	0
scalar dtelecom_network.node[26].core_layer 	interests[26] 	896
scalar dtelecom_network.node[26].core_layer 	data[26] 	380
scalar dtelecom_network.node[26].content_store 	p_hit[26] 	0.57589285714286
scalar dtelecom_network.node[26].content_store 	hits[26] 	516
scalar dtelecom_network.node[26].content_store 	misses[26] 	380
scalar dtelecom_network.node[26].content_store 	decision_yes[26] 	1
scalar dtelecom_network.node[26].content_store 	decision_no[26] 	379
scalar dtelecom_network.node[26].content_store 	decision_ratio[26] 	0.0026315789473684
scalar dtelecom_network.node[27].core_layer 	interests[27] 	0
scalar dtelecom_network.node[27].core_layer 	data[27] 	0
scalar dtelecom_network.node[27].content_store 	p_hit[27] 	-nan
scalar dtelecom_network.node[27].content_store 	hits[27] 	0
scalar dtelecom_network.node[27].content_store 	misses[27] 	0
scalar dtelecom_network.node[27].content_store 	decision_yes[27] 	0
scalar dtelecom_network.node[27].content_store 	decision_no[27] 	0
scalar dtelecom_network.node[27].content_store 	decision_ratio[27] 	0
scalar dtelecom_network.node[28].core_layer 	interests[28] 	13913
scalar dtelecom_network.node[28].core_layer 	data[28] 	9116
scalar dtelecom_network.node[28].content_store 	p_hit[28] 	0.34464170200532
scalar dtelecom_network.node[28].content_store 	hits[28] 	4795
scalar dtelecom_network.node[28].content_store 	misses[28] 	9118
scalar dtelecom_network.node[28].content_store 	decision_yes[28] 	42
scalar dtelecom_network.node[28].content_store 	decision_no[28] 	9074
scalar dtelecom_network.node[28].content_store 	decision_ratio[28] 	0.0046072838964458
scalar dtelecom_network.node[29].core_layer 	interests[29] 	0
scalar dtelecom_network.node[29].core_layer 	data[29] 	0
scalar dtelecom_network.node[29].content_store 	p_hit[29] 	-nan
scalar dtelecom_network.node[29].content_store 	hits[29] 	0
scalar dtelecom_network.node[29].content_store 	misses[29] 	0
scalar dtelecom_network.node[29].content_store 	decision_yes[29] 	0
scalar dtelecom_network.node[29].content_store 	decision_no[29] 	0
scalar dtelecom_network.node[29].content_store 	decision_ratio[29] 	0
scalar dtelecom_network.node[30].core_layer 	interests[30] 	13405
scalar dtelecom_network.node[30].core_layer 	data[30] 	9189
scalar dtelecom_network.node[30].content_store 	p_hit[30] 	0.31450951137635
scalar dtelecom_network.node[30].content_store 	hits[30] 	4216
scalar dtelecom_network.node[30].content_store 	misses[30] 	9189
scalar dtelecom_network.node[30].content_store 	decision_yes[30] 	45
scalar dtelecom_network.node[30].content_store 	decision_no[30] 	9144
scalar dtelecom_network.node[30].content_store 	decision_ratio[30] 	0.0048971596474045
scalar dtelecom_network.node[31].core_layer 	interests[31] 	13788
scalar dtelecom_network.node[31].core_layer 	data[31] 	9120
scalar dtelecom_network.node[31].content_store 	p_hit[31] 	0.3382651581085
scalar dtelecom_network.node[31].content_store 	hits[31] 	4664
scalar dtelecom_network.node[31].content_store 	misses[31] 	9124
scalar dtelecom_network.node[31].content_store 	decision_yes[31] 	33
scalar dtelecom_network.node[31].content_store 	decision_no[31] 	9087
scalar dtelecom_network.node[31].content_store 	decision_ratio[31] 	0.0036184210526316
scalar dtelecom_network.node[32].core_layer 	interests[32] 	24548
scalar dtelecom_network.node[32].core_layer 	repo_load[32] 	11479
scalar dtelecom_network.node[32].core_layer 	data[32] 	9037
scalar dtelecom_network.node[32].content_store 	p_hit[32] 	0.16429036988757
scalar dtelecom_network.node[32].content_store 	hits[32] 	4033
scalar dtelecom_network.node[32].content_store 	misses[32] 	20515
scalar dtelecom_network.node[32].content_store 	decision_yes[32] 	100
scalar dtelecom_network.node[32].content_store 	decision_no[32] 	20416
scalar dtelecom_network.node[32].content_store 	decision_ratio[32] 	0.0048742444921037
scalar dtelecom_network.node[33].core_layer 	interests[33] 	14127
scalar dtelecom_network.node[33].core_layer 	data[33] 	9049
scalar dtelecom_network.node[33].content_store 	p_hit[33] 	0.3594535287039
scalar dtelecom_network.node[33].content_store 	hits[33] 	5078
scalar dtelecom_network.node[33].content_store 	misses[33] 	9049
scalar dtelecom_network.node[33].content_store 	decision_yes[33] 	48
scalar dtelecom_network.node[33].content_store 	decision_no[33] 	9001
scalar dtelecom_network.node[33].content_store 	decision_ratio[33] 	0.0053044535307769
scalar dtelecom_network.node[34].core_layer 	interests[34] 	13264
scalar dtelecom_network.node[34].core_layer 	repo_load[34] 	11169
scalar dtelecom_network.node[34].core_layer 	data[34] 	0
scalar dtelecom_network.node[34].content_store 	p_hit[34] 	0.15794632086852
scalar dtelecom_network.node[34].content_store 	hits[34] 	2095
scalar dtelecom_network.node[34].content_store 	misses[34] 	11169
scalar dtelecom_network.node[34].content_store 	decision_yes[34] 	58
scalar dtelecom_network.node[34].content_store 	decision_no[34] 	11111
scalar dtelecom_network.node[34].content_store 	decision_ratio[34] 	0.0051929447578118
scalar dtelecom_network.node[35].core_layer 	interests[35] 	0
scalar dtelecom_network.node[35].core_layer 	data[35] 	0
scalar dtelecom_network.node[35].content_store 	p_hit[35] 	-nan
scalar dtelecom_network.node[35].content_store 	hits[35] 	0
scalar dtelecom_network.node[35].content_store 	misses[35] 	0
scalar dtelecom_network.node[35].content_store 	decision_yes[35] 	0
scalar dtelecom_network.node[35].content_store 	decision_no[35] 	0
scalar dtelecom_network.node[35].content_store 	decision_ratio[35] 	0
scalar dtelecom_network.node[36].core_layer 	interests[36] 	13512
scalar dtelecom_network.node[36].core_layer 	data[36] 	9200
scalar dtelecom_network.node[36].content_store 	p_hit[36] 	0.31904973357016
scalar dtelecom_network.node[36].content_store 	hits[36] 	4311
scalar dtelecom_network.node[36].content_store 	misses[36] 	9201
scalar dtelecom_network.node[36].content_store 	decision_yes[36] 	43
scalar dtelecom_network.node[36].content_store 	decision_no[36] 	9157
scalar dtelecom_network.node[36].content_store 	decision_ratio[36] 	0.0046739130434783
scalar dtelecom_network.node[37].core_layer 	interests[37] 	13642
scalar dtelecom_network.node[37].core_layer 	data[37] 	9181
scalar dtelecom_network.node[37].content_store 	p_hit[37] 	0.32671162586131
scalar dtelecom_network.node[37].content_store 	hits[37] 	4457
scalar dtelecom_network.node[37].content_store 	misses[37] 	9185
scalar dtelecom_network.node[37].content_store 	decision_yes[37] 	43
scalar dtelecom_network.node[37].content_store 	decision_no[37] 	9138
scalar dtelecom_network.node[37].content_store 	decision_ratio[37] 	0.0046835856660494
scalar dtelecom_network.node[38].core_layer 	interests[38] 	0
scalar dtelecom_network.node[38].core_layer 	data[38] 	0
scalar dtelecom_network.node[38].content_store 	p_hit[38] 	-nan
scalar dtelecom_network.node[38].content_store 	hits[38] 	0
scalar dtelecom_network.node[38].content_store 	misses[38] 	0
scalar dtelecom_network.node[38].content_store 	decision_yes[38] 	0
scalar dtelecom_network.node[38].content_store 	decision_no[38] 	0
scalar dtelecom_network.node[38].content_store 	decision_ratio[38] 	0
scalar dtelecom_network.node[39].core_layer 	interests[39] 	0
scalar dtelecom_network.node[39].core_layer 	data[39] 	0
scalar dtelecom_network.node[39].content_store 	p_hit[39] 	-nan
scalar dtelecom_network.node[39].content_store 	hits[39] 	0
scalar dtelecom_network.node[39].content_store 	misses[39] 	0
scalar dtelecom_network.node[39].content_store 	decision_yes[39] 	0
scalar dtelecom_network.node[39].content_store 	decision_no[39] 	0
scalar dtelecom_network.node[39].content_store 	decision_ratio[39] 	0
scalar dtelecom_network.node[40].core_layer 	interests[40] 	15283
scalar dtelecom_network.node[40].core_layer 	data[40] 	9555
scalar dtelecom_network.node[40].content_store 	p_hit[40] 	0.37479552443892
scalar dtelecom_network.node[40].content_store 	hits[40] 	5728
scalar dtelecom_network.node[40].content_store 	misses[40] 	9555
scalar dtelecom_network.node[40].content_store 	decision_yes[40] 	51
scalar dtelecom_network.node[40].content_store 	decision_no[40] 	9504
scalar dtelecom_network.node[40].content_store 	decision_ratio[40] 	0.0053375196232339
scalar dtelecom_network.node[41].core_layer 	interests[41] 	0
scalar dtelecom_network.node[41].core_layer 	data[41] 	0
scalar dtelecom_network.node[41].content_store 	p_hit[41] 	-nan
scalar dtelecom_network.node[41].content_store 	hits[41] 	0
scalar dtelecom_network.node[41].content_store 	misses[41] 	0
scalar dtelecom_network.node[41].content_store 	decision_yes[41] 	0
scalar dtelecom_network.node[41].content_store 	decision_no[41] 	0
scalar dtelecom_network.node[41].content_store 	decision_ratio[41] 	0
scalar dtelecom_network.node[42].core_layer 	interests[42] 	14012
scalar dtelecom_network.node[42].core_layer 	data[42] 	9318
scalar dtelecom_network.node[42].content_store 	p_hit[42] 	0.33492720525264
scalar dtelecom_network.node[42].content_store 	hits[42] 	4693
scalar dtelecom_network.node[42].content_store 	misses[42] 	9319
scalar dtelecom_network.node[42].content_store 	decision_yes[42] 	55
scalar dtelecom_network.node[42].content_store 	decision_no[42] 	9263
scalar dtelecom_network.node[42].content_store 	decision_ratio[42] 	0.0059025541961794
scalar dtelecom_network.node[43].core_layer 	interests[43] 	12299
scalar dtelecom_network.node[43].core_layer 	repo_load[43] 	10546
scalar dtelecom_network.node[43].core_layer 	data[43] 	0
scalar dtelecom_network.node[43].content_store 	p_hit[43] 	0.14253191316367
scalar dtelecom_network.node[43].content_store 	hits[43] 	1753
scalar dtelecom_network.node[43].content_store 	misses[43] 	10546
scalar dtelecom_network.node[43].content_store 	decision_yes[43] 	58
scalar dtelecom_network.node[43].content_store 	decision_no[43] 	10488
scalar dtelecom_network.node[43].content_store 	decision_ratio[43] 	0.0054997155319552
scalar dtelecom_network.node[44].core_layer 	interests[44] 	0
scalar dtelecom_network.node[44].core_layer 	data[44] 	0
scalar dtelecom_network.node[44].content_store 	p_hit[44] 	-nan
scalar dtelecom_network.node[44].content_store 	hits[44] 	0
scalar dtelecom_network.node[44].content_store 	misses[44] 	0
scalar dtelecom_network.node[44].content_store 	decision_yes[44] 	0
scalar dtelecom_network.node[44].content_store 	decision_no[44] 	0
scalar dtelecom_network.node[44].content_store 	decision_ratio[44] 	0
scalar dtelecom_network.node[45].core_layer 	interests[45] 	25677
scalar dtelecom_network.node[45].core_layer 	repo_load[45] 	12257
scalar dtelecom_network.node[45].core_layer 	data[45] 	9068
scalar dtelecom_network.node[45].content_store 	p_hit[45] 	0.16945125988239
scalar dtelecom_network.node[45].content_store 	hits[45] 	4351
scalar dtelecom_network.node[45].content_store 	misses[45] 	21326
scalar dtelecom_network.node[45].content_store 	decision_yes[45] 	102
scalar dtelecom_network.node[45].content_store 	decision_no[45] 	21223
scalar dtelecom_network.node[45].content_store 	decision_ratio[45] 	0.0047831184056272
scalar dtelecom_network.node[46].core_layer 	interests[46] 	13535
scalar dtelecom_network.node[46].core_layer 	data[46] 	9072
scalar dtelecom_network.node[46].content_store 	p_hit[46] 	0.32973771702992
scalar dtelecom_network.node[46].content_store 	hits[46] 	4463
scalar dtelecom_network.node[46].content_store 	misses[46] 	9072
scalar dtelecom_network.node[46].content_store 	decision_yes[46] 	30
scalar dtelecom_network.node[46].content_store 	decision_no[46] 	9042
scalar dtelecom_network.node[46].content_store 	decision_ratio[46] 	0.0033068783068783
scalar dtelecom_network.node[47].core_layer 	interests[47] 	0
scalar dtelecom_network.node[47].core_layer 	data[47] 	0
scalar dtelecom_network.node[47].content_store 	p_hit[47] 	-nan
scalar dtelecom_network.node[47].content_store 	hits[47] 	0
scalar dtelecom_network.node[47].content_store 	misses[47] 	0
scalar dtelecom_network.node[47].content_store 	decision_yes[47] 	0
scalar dtelecom_network.node[47].content_store 	decision_no[47] 	0
scalar dtelecom_network.node[47].content_store 	decision_ratio[47] 	0
scalar dtelecom_network.node[48].core_layer 	interests[48] 	13795
scalar dtelecom_network.node[48].core_layer 	data[48] 	9238
scalar dtelecom_network.node[48].content_store 	p_hit[48] 	0.33033707865169
scalar dtelecom_network.node[48].content_store 	hits[48] 	4557
scalar dtelecom_network.node[48].content_store 	misses[48] 	9238
scalar dtelecom_network.node[48].content_store 	decision_yes[48] 	45
scalar dtelecom_network.node[48].content_store 	decision_no[48] 	9193
scalar dtelecom_network.node[48].content_store 	decision_ratio[48] 	0.0048711842390128
scalar dtelecom_network.node[49].core_layer 	interests[49] 	13407
scalar dtelecom_network.node[49].core_layer 	data[49] 	9069
scalar dtelecom_network.node[49].content_store 	p_hit[49] 	0.3234131423883
scalar dtelecom_network.node[49].content_store 	hits[49] 	4336
scalar dtelecom_network.node[49].content_store 	misses[49] 	9071
scalar dtelecom_network.node[49].content_store 	decision_yes[49] 	40
scalar dtelecom_network.node[49].content_store 	decision_no[49] 	9029
scalar dtelecom_network.node[49].content_store 	decision_ratio[49] 	0.0044106296173779
scalar dtelecom_network.node[50].core_layer 	interests[50] 	13298
scalar dtelecom_network.node[50].core_layer 	data[50] 	9186
scalar dtelecom_network.node[50].content_store 	p_hit[50] 	0.30914423221537
scalar dtelecom_network.node[50].content_store 	hits[50] 	4111
scalar dtelecom_network.node[50].content_store 	misses[50] 	9187
scalar dtelecom_network.node[50].content_store 	decision_yes[50] 	50
scalar dtelecom_network.node[50].content_store 	decision_no[50] 	9136
scalar dtelecom_network.node[50].content_store 	decision_ratio[50] 	0.005443065534509
scalar dtelecom_network.node[51].core_layer 	interests[51] 	25360
scalar dtelecom_network.node[51].core_layer 	repo_load[51] 	12152
scalar dtelecom_network.node[51].core_layer 	data[51] 	8725
scalar dtelecom_network.node[51].content_store 	p_hit[51] 	0.17673501577287
scalar dtelecom_network.node[51].content_store 	hits[51] 	4482
scalar dtelecom_network.node[51].content_store 	misses[51] 	20878
scalar dtelecom_network.node[51].content_store 	decision_yes[51] 	121
scalar dtelecom_network.node[51].content_store 	decision_no[51] 	20756
scalar dtelecom_network.node[51].content_store 	decision_ratio[51] 	0.0057958518944293
scalar dtelecom_network.node[52].core_layer 	interests[52] 	0
scalar dtelecom_network.node[52].core_layer 	data[52] 	0
scalar dtelecom_network.node[52].content_store 	p_hit[52] 	-nan
scalar dtelecom_network.node[52].content_store 	hits[52] 	0
scalar dtelecom_network.node[52].content_store 	misses[52] 	0
scalar dtelecom_network.node[52].content_store 	decision_yes[52] 	0
scalar dtelecom_network.node[52].content_store 	decision_no[52] 	0
scalar dtelecom_network.node[52].content_store 	decision_ratio[52] 	0
scalar dtelecom_network.node[53].core_layer 	interests[53] 	13800
scalar dtelecom_network.node[53].core_layer 	data[53] 	9285
scalar dtelecom_network.node[53].content_store 	p_hit[53] 	0.32710144927536
scalar dtelecom_network.node[53].content_store 	hits[53] 	4514
scalar dtelecom_network.node[53].content_store 	misses[53] 	9286
scalar dtelecom_network.node[53].content_store 	decision_yes[53] 	53
scalar dtelecom_network.node[53].content_store 	decision_no[53] 	9232
scalar dtelecom_network.node[53].content_store 	decision_ratio[53] 	0.0057081313947227
scalar dtelecom_network.node[54].core_layer 	interests[54] 	13354
scalar dtelecom_network.node[54].core_layer 	data[54] 	9093
scalar dtelecom_network.node[54].content_store 	p_hit[54] 	0.31900554141081
scalar dtelecom_network.node[54].content_store 	hits[54] 	4260
scalar dtelecom_network.node[54].content_store 	misses[54] 	9094
scalar dtelecom_network.node[54].content_store 	decision_yes[54] 	46
scalar dtelecom_network.node[54].content_store 	decision_no[54] 	9047
scalar dtelecom_network.node[54].content_store 	decision_ratio[54] 	0.0050588364676124
scalar dtelecom_network.node[55].core_layer 	interests[55] 	13424
scalar dtelecom_network.node[55].core_layer 	data[55] 	8949
scalar dtelecom_network.node[55].content_store 	p_hit[55] 	0.33328367103695
scalar dtelecom_network.node[55].content_store 	hits[55] 	4474
scalar dtelecom_network.node[55].content_store 	misses[55] 	8950
scalar dtelecom_network.node[55].content_store 	decision_yes[55] 	36
scalar dtelecom_network.node[55].content_store 	decision_no[55] 	8913
scalar dtelecom_network.node[55].content_store 	decision_ratio[55] 	0.004022795843111
scalar dtelecom_network.node[56].core_layer 	interests[56] 	13608
scalar dtelecom_network.node[56].core_layer 	data[56] 	9130
scalar dtelecom_network.node[56].content_store 	p_hit[56] 	0.32907113462669
scalar dtelecom_network.node[56].content_store 	hits[56] 	4478
scalar dtelecom_network.node[56].content_store 	misses[56] 	9130
scalar dtelecom_network.node[56].content_store 	decision_yes[56] 	44
scalar dtelecom_network.node[56].content_store 	decision_no[56] 	9086
scalar dtelecom_network.node[56].content_store 	decision_ratio[56] 	0.0048192771084337
scalar dtelecom_network.node[57].core_layer 	interests[57] 	13406
scalar dtelecom_network.node[57].core_layer 	data[57] 	9115
scalar dtelecom_network.node[57].content_store 	p_hit[57] 	0.32000596747725
scalar dtelecom_network.node[57].content_store 	hits[57] 	4290
scalar dtelecom_network.node[57].content_store 	misses[57] 	9116
scalar dtelecom_network.node[57].content_store 	decision_yes[57] 	26
scalar dtelecom_network.node[57].content_store 	decision_no[57] 	9089
scalar dtelecom_network.node[57].content_store 	decision_ratio[57] 	0.0028524410312671
scalar dtelecom_network.node[58].core_layer 	interests[58] 	13570
scalar dtelecom_network.node[58].core_layer 	data[58] 	9101
scalar dtelecom_network.node[58].content_store 	p_hit[58] 	0.32925571112749
scalar dtelecom_network.node[58].content_store 	hits[58] 	4468
scalar dtelecom_network.node[58].content_store 	misses[58] 	9102
scalar dtelecom_network.node[58].content_store 	decision_yes[58] 	41
scalar dtelecom_network.node[58].content_store 	decision_no[58] 	9060
scalar dtelecom_network.node[58].content_store 	decision_ratio[58] 	0.0045049994506098
scalar dtelecom_network.node[59].core_layer 	interests[59] 	15460
scalar dtelecom_network.node[59].core_layer 	data[59] 	8964
scalar dtelecom_network.node[59].content_store 	p_hit[59] 	0.41966364812419
scalar dtelecom_network.node[59].content_store 	hits[59] 	6488
scalar dtelecom_network.node[59].content_store 	misses[59] 	8972
scalar dtelecom_network.node[59].content_store 	decision_yes[59] 	58
scalar dtelecom_network.node[59].content_store 	decision_no[59] 	8906
scalar dtelecom_network.node[59].content_store 	decision_ratio[59] 	0.0064703257474342
scalar dtelecom_network.node[60].core_layer 	interests[60] 	12671
scalar dtelecom_network.node[60].core_layer 	repo_load[60] 	10959
scalar dtelecom_network.node[60].core_layer 	data[60] 	0
scalar dtelecom_network.node[60].content_store 	p_hit[60] 	0.13511167232263
scalar dtelecom_network.node[60].content_store 	hits[60] 	1712
scalar dtelecom_network.node[60].content_store 	misses[60] 	10959
scalar dtelecom_network.node[60].content_store 	decision_yes[60] 	34
scalar dtelecom_network.node[60].content_store 	decision_no[60] 	10925
scalar dtelecom_network.node[60].content_store 	decision_ratio[60] 	0.0031024728533625
scalar dtelecom_network.node[61].core_layer 	interests[61] 	0
scalar dtelecom_network.node[61].core_layer 	data[61] 	0
scalar dtelecom_network.node[61].content_store 	p_hit[61] 	-nan
scalar dtelecom_network.node[61].content_store 	hits[61] 	0
scalar dtelecom_network.node[61].content_store 	misses[61] 	0
scalar dtelecom_network.node[61].content_store 	decision_yes[61] 	0
scalar dtelecom_network.node[61].content_store 	decision_no[61] 	0
scalar dtelecom_network.node[61].content_store 	decision_ratio[61] 	0
scalar dtelecom_network.node[62].core_layer 	interests[62] 	12938
scalar dtelecom_network.node[62].core_layer 	data[62] 	9114
scalar dtelecom_network.node[62].content_store 	p_hit[62] 	0.29540887308703
scalar dtelecom_network.node[62].content_store 	hits[62] 	3822
scalar dtelecom_network.node[62].content_store 	misses[62] 	9116
scalar dtelecom_network.node[62].content_store 	decision_yes[62] 	52
scalar dtelecom_network.node[62].content_store 	decision_no[62] 	9062
scalar dtelecom_network.node[62].content_store 	decision_ratio[62] 	0.0057055080096555
scalar dtelecom_network.node[63].core_layer 	interests[63] 	0
scalar dtelecom_network.node[63].core_layer 	data[63] 	0
scalar dtelecom_network.node[63].content_store 	p_hit[63] 	-nan
scalar dtelecom_network.node[63].content_store 	hits[63] 	0
scalar dtelecom_network.node[63].content_store 	misses[63] 	0
scalar dtelecom_network.node[63].content_store 	decision_yes[63] 	0
scalar dtelecom_network.node[63].content_store 	decision_no[63] 	0
scalar dtelecom_network.node[63].content_store 	decision_ratio[63] 	0
scalar dtelecom_network.node[64].core_layer 	interests[64] 	12837
scalar dtelecom_network.node[64].core_layer 	repo_load[64] 	11289
scalar dtelecom_network.node[64].core_layer 	data[64] 	0
scalar dtelecom_network.node[64].content_store 	p_hit[64] 	0.12058892264548
scalar dtelecom_network.node[64].content_store 	hits[64] 	1548
scalar dtelecom_network.node[64].content_store 	misses[64] 	11289
scalar dtelecom_network.node[64].content_store 	decision_yes[64] 	52
scalar dtelecom_network.node[64].content_store 	decision_no[64] 	11237
scalar dtelecom_network.node[64].content_store 	decision_ratio[64] 	0.004606253875454
scalar dtelecom_network.node[65].core_layer 	interests[65] 	24
scalar dtelecom_network.node[65].core_layer 	data[65] 	17
scalar dtelecom_network.node[65].content_store 	p_hit[65] 	0.29166666666667
scalar dtelecom_network.node[65].content_store 	hits[65] 	7
scalar dtelecom_network.node[65].content_store 	misses[65] 	17
scalar dtelecom_network.node[65].content_store 	decision_yes[65] 	0
scalar dtelecom_network.node[65].content_store 	decision_no[65] 	17
scalar dtelecom_network.node[65].content_store 	decision_ratio[65] 	0
scalar dtelecom_network.node[66].core_layer 	interests[66] 	13486
scalar dtelecom_network.node[66].core_layer 	data[66] 	9160
scalar dtelecom_network.node[66].content_store 	p_hit[66] 	0.32062880023728
scalar dtelecom_network.node[66].content_store 	hits[66] 	4324
scalar dtelecom_network.node[66].content_store 	misses[66] 	9162
scalar dtelecom_network.node[66].content_store 	decision_yes[66] 	43
scalar dtelecom_network.node[66].content_store 	decision_no[66] 	9117
scalar dtelecom_network.node[66].content_store 	decision_ratio[66] 	0.0046943231441048
scalar dtelecom_network.node[67].core_layer 	interests[67] 	13330
scalar dtelecom_network.node[67].core_layer 	data[67] 	9039
scalar dtelecom_network.node[67].content_store 	p_hit[67] 	0.32175543885971
scalar dtelecom_network.node[67].content_store 	hits[67] 	4289
scalar dtelecom_network.node[67].content_store 	misses[67] 	9041
scalar dtelecom_network.node[67].content_store 	decision_yes[67] 	41
scalar dtelecom_network.node[67].content_store 	decision_no[67] 	8998
scalar dtelecom_network.node[67].content_store 	decision_ratio[67] 	0.0045358999889368
scalar dtelecom_network.client[3] 	hdistance[3] 	1.31699669967
scalar dtelecom_network.client[3] 	downloads[3] 	12120
scalar dtelecom_network.client[3] 	avg_time[3] 	0.01170913784
scalar dtelecom_network.client[4] 	hdistance[4] 	1.3070990213966
scalar dtelecom_network.client[4] 	downloads[4] 	12058
scalar dtelecom_network.client[4] 	avg_time[4] 	0.049484173875
scalar dtelecom_network.client[8] 	hdistance[8] 	1.7365654205607
scalar dtelecom_network.client[8] 	downloads[8] 	11984
scalar dtelecom_network.client[8] 	avg_time[8] 	0.016377786018
scalar dtelecom_network.client[9] 	hdistance[9] 	1.7179082141669
scalar dtelecom_network.client[9] 	downloads[9] 	12028
scalar dtelecom_network.client[9] 	avg_time[9] 	0.015932559813
scalar dtelecom_network.client[17] 	hdistance[17] 	1.7521339189525
scalar dtelecom_network.client[17] 	downloads[17] 	12067
scalar dtelecom_network.client[17] 	avg_time[17] 	0.015649821774
scalar dtelecom_network.client[22] 	hdistance[22] 	1.7375927452597
scalar dtelecom_network.client[22] 	downloads[22] 	12130
scalar dtelecom_network.client[22] 	avg_time[22] 	0.015581412706
scalar dtelecom_network.client[23] 	hdistance[23] 	1.554599602912
scalar dtelecom_network.client[23] 	downloads[23] 	12088
scalar dtelecom_network.client[23] 	avg_time[23] 	0.014512481439
scalar dtelecom_network.client[28] 	hdistance[28] 	1.7548076923077
scalar dtelecom_network.client[28] 	downloads[28] 	11856
scalar dtelecom_network.client[28] 	avg_time[28] 	0.017993527703
scalar dtelecom_network.client[30] 	hdistance[30] 	1.8064298939572
scalar dtelecom_network.client[30] 	downloads[30] 	11882
scalar dtelecom_network.client[30] 	avg_time[30] 	0.015987236467
scalar dtelecom_network.client[31] 	hdistance[31] 	1.7659981692602
scalar dtelecom_network.client[31] 	downloads[31] 	12017
scalar dtelecom_network.client[31] 	avg_time[31] 	0.017522010288
scalar dtelecom_network.client[32] 	hdistance[32] 	1.7541666666667
scalar dtelecom_network.client[32] 	downloads[32] 	12000
scalar dtelecom_network.client[32] 	avg_time[32] 	0.014921690368
scalar dtelecom_network.client[33] 	hdistance[33] 	1.6997560360057
scalar dtelecom_network.client[33] 	downloads[33] 	11887
scalar dtelecom_network.client[33] 	avg_time[33] 	0.014546755628
scalar dtelecom_network.client[36] 	hdistance[36] 	1.7842844090041
scalar dtelecom_network.client[36] 	downloads[36] 	12039
scalar dtelecom_network.client[36] 	avg_time[36] 	0.016031444418
scalar dtelecom_network.client[37] 	hdistance[37] 	1.7459809780322
scalar dtelecom_network.client[37] 	downloads[37] 	11881
scalar dtelecom_network.client[37] 	avg_time[37] 	0.016282647649
scalar dtelecom_network.client[40] 	hdistance[40] 	1.6994308045196
scalar dtelecom_network.client[40] 	downloads[40] 	11771
scalar dtelecom_network.client[40] 	avg_time[40] 	0.016434713932
scalar dtelecom_network.client[42] 	hdistance[42] 	1.7812731614922
scalar dtelecom_network.client[42] 	downloads[42] 	12143
scalar dtelecom_network.client[42] 	avg_time[42] 	0.017766787773
scalar dtelecom_network.client[45] 	hdistance[45] 	1.644287109375
scalar dtelecom_network.client[45] 	downloads[45] 	12288
scalar dtelecom_network.client[45] 	avg_time[45] 	0.016360634091
scalar dtelecom_network.client[46] 	hdistance[46] 	1.7408649011063
scalar dtelecom_network.client[46] 	downloads[46] 	11932
scalar dtelecom_network.client[46] 	avg_time[46] 	0.017450898451
scalar dtelecom_network.client[48] 	hdistance[48] 	1.7628438846536
scalar dtelecom_network.client[48] 	downloads[48] 	12068
scalar dtelecom_network.client[48] 	avg_time[48] 	0.016209223934
scalar dtelecom_network.client[49] 	hdistance[49] 	1.7609903991915
scalar dtelecom_network.client[49] 	downloads[49] 	11874
scalar dtelecom_network.client[49] 	avg_time[49] 	0.015565988606
scalar dtelecom_network.client[50] 	hdistance[50] 	1.7847210588038
scalar dtelecom_network.client[50] 	downloads[50] 	11938
scalar dtelecom_network.client[50] 	avg_time[50] 	0.015074875908
scalar dtelecom_network.client[51] 	hdistance[51] 	1.6926508965401
scalar dtelecom_network.client[51] 	downloads[51] 	11879
scalar dtelecom_network.client[51] 	avg_time[51] 	0.015012781598
scalar dtelecom_network.client[53] 	hdistance[53] 	1.7537232714868
scalar dtelecom_network.client[53] 	downloads[53] 	12019
scalar dtelecom_network.client[53] 	avg_time[53] 	0.015298498705
scalar dtelecom_network.client[54] 	hdistance[54] 	1.726249894256
scalar dtelecom_network.client[54] 	downloads[54] 	11821
scalar dtelecom_network.client[54] 	avg_time[54] 	0.016256563286
scalar dtelecom_network.client[55] 	hdistance[55] 	1.7687340696686
scalar dtelecom_network.client[55] 	downloads[55] 	11770
scalar dtelecom_network.client[55] 	avg_time[55] 	0.01963598455
scalar dtelecom_network.client[56] 	hdistance[56] 	1.7570203463931
scalar dtelecom_network.client[56] 	downloads[56] 	11894
scalar dtelecom_network.client[56] 	avg_time[56] 	0.014715729093
scalar dtelecom_network.client[57] 	hdistance[57] 	1.7880110821929
scalar dtelecom_network.client[57] 	downloads[57] 	11911
scalar dtelecom_network.client[57] 	avg_time[57] 	0.014547676057
scalar dtelecom_network.client[58] 	hdistance[58] 	1.7361017520216
scalar dtelecom_network.client[58] 	downloads[58] 	11872
scalar dtelecom_network.client[58] 	avg_time[58] 	0.018607568638
scalar dtelecom_network.client[59] 	hdistance[59] 	1.8487972508591
scalar dtelecom_network.client[59] 	downloads[59] 	11931
scalar dtelecom_network.client[59] 	avg_time[59] 	0.058510794964
scalar dtelecom_network.client[62] 	hdistance[62] 	2.221050008307
scalar dtelecom_network.client[62] 	downloads[62] 	12038
scalar dtelecom_network.client[62] 	avg_time[62] 	0.061632110702
scalar dtelecom_network.client[66] 	hdistance[66] 	1.9126699474518
scalar dtelecom_network.client[66] 	downloads[66] 	11989
scalar dtelecom_network.client[66] 	avg_time[66] 	0.089141048622
scalar dtelecom_network.client[67] 	hdistance[67] 	1.9672354948805
scalar dtelecom_network.client[67] 	downloads[67] 	11720
scalar dtelecom_network.client[67] 	avg_time[67] 	0.074669382979
