version 2
run General-83-20160825-09:26:09-24543
attr D fix0.005
attr F nrr
attr R lru
attr a 0.9
attr configname General
attr datetime 20160825-09:26:09
attr experiment General
attr inifile hw5115/scenario_C/omnetp.ini
attr iterationvars "$net=dtelecom, $rep=10, $a=0.9, $F=nrr, $D=fix0.005, $R=lru, $window=60, $variance=0.05, $mytime=600"
attr iterationvars2 "$net=dtelecom, $rep=10, $a=0.9, $F=nrr, $D=fix0.005, $R=lru, $window=60, $variance=0.05, $mytime=600, $repetition=0"
attr measurement "$net=dtelecom, $rep=10, $a=0.9, $F=nrr, $D=fix0.005, $R=lru, $window=60, $variance=0.05, $mytime=600"
attr mytime 600
attr net dtelecom
attr network networks.${net=dtelecom}_network
attr processid 24543
attr rep 10
attr repetition 0
attr replication #0
attr resultdir results
attr runnumber 83
attr seedset 10
attr variance 0.05
attr window 60

scalar . 	a 	0.9
scalar . 	mytime 	600
scalar . 	rep 	10
scalar . 	variance 	0.05
scalar . 	window 	60
scalar dtelecom_network.content_distribution 	repo-0 	16
scalar dtelecom_network.content_distribution 	repo-1 	23
scalar dtelecom_network.content_distribution 	repo-2 	58
scalar dtelecom_network.content_distribution 	repo-3 	28
scalar dtelecom_network.content_distribution 	repo-4 	42
scalar dtelecom_network.content_distribution 	repo-5 	46
scalar dtelecom_network.content_distribution 	repo-6 	6
scalar dtelecom_network.content_distribution 	repo-7 	18
scalar dtelecom_network.content_distribution 	repo-8 	25
scalar dtelecom_network.content_distribution 	repo-9 	10
scalar dtelecom_network.content_distribution 	repo-10 	44
scalar dtelecom_network.content_distribution 	repo-11 	54
scalar dtelecom_network.content_distribution 	repo-12 	24
scalar dtelecom_network.content_distribution 	repo-13 	31
scalar dtelecom_network.content_distribution 	repo-14 	65
scalar dtelecom_network.content_distribution 	repo-15 	27
scalar dtelecom_network.content_distribution 	client-0 	46
scalar dtelecom_network.content_distribution 	client-1 	30
scalar dtelecom_network.content_distribution 	client-2 	8
scalar dtelecom_network.content_distribution 	client-3 	49
scalar dtelecom_network.content_distribution 	client-4 	66
scalar dtelecom_network.content_distribution 	client-5 	58
scalar dtelecom_network.content_distribution 	client-6 	32
scalar dtelecom_network.content_distribution 	client-7 	40
scalar dtelecom_network.content_distribution 	client-8 	42
scalar dtelecom_network.content_distribution 	client-9 	45
scalar dtelecom_network.content_distribution 	client-10 	33
scalar dtelecom_network.content_distribution 	client-11 	28
scalar dtelecom_network.content_distribution 	client-12 	3
scalar dtelecom_network.content_distribution 	client-13 	57
scalar dtelecom_network.content_distribution 	client-14 	50
scalar dtelecom_network.content_distribution 	client-15 	17
scalar dtelecom_network.content_distribution 	client-16 	59
scalar dtelecom_network.content_distribution 	client-17 	48
scalar dtelecom_network.content_distribution 	client-18 	23
scalar dtelecom_network.content_distribution 	client-19 	22
scalar dtelecom_network.content_distribution 	client-20 	67
scalar dtelecom_network.content_distribution 	client-21 	62
scalar dtelecom_network.content_distribution 	client-22 	56
scalar dtelecom_network.content_distribution 	client-23 	55
scalar dtelecom_network.content_distribution 	client-24 	53
scalar dtelecom_network.content_distribution 	client-25 	36
scalar dtelecom_network.content_distribution 	client-26 	51
scalar dtelecom_network.content_distribution 	client-27 	37
scalar dtelecom_network.content_distribution 	client-28 	54
scalar dtelecom_network.content_distribution 	client-29 	4
scalar dtelecom_network.content_distribution 	client-30 	31
scalar dtelecom_network.content_distribution 	client-31 	9
scalar dtelecom_network.content_distribution 	repo-0_card 	6240
scalar dtelecom_network.content_distribution 	repo-0_price 	0
scalar dtelecom_network.content_distribution 	repo-1_card 	6300
scalar dtelecom_network.content_distribution 	repo-1_price 	0
scalar dtelecom_network.content_distribution 	repo-2_card 	6351
scalar dtelecom_network.content_distribution 	repo-2_price 	0
scalar dtelecom_network.content_distribution 	repo-3_card 	6069
scalar dtelecom_network.content_distribution 	repo-3_price 	0
scalar dtelecom_network.content_distribution 	repo-4_card 	6322
scalar dtelecom_network.content_distribution 	repo-4_price 	0
scalar dtelecom_network.content_distribution 	repo-5_card 	6183
scalar dtelecom_network.content_distribution 	repo-5_price 	0
scalar dtelecom_network.content_distribution 	repo-6_card 	6236
scalar dtelecom_network.content_distribution 	repo-6_price 	0
scalar dtelecom_network.content_distribution 	repo-7_card 	6223
scalar dtelecom_network.content_distribution 	repo-7_price 	0
scalar dtelecom_network.content_distribution 	repo-8_card 	6295
scalar dtelecom_network.content_distribution 	repo-8_price 	0
scalar dtelecom_network.content_distribution 	repo-9_card 	6273
scalar dtelecom_network.content_distribution 	repo-9_price 	0
scalar dtelecom_network.content_distribution 	repo-10_card 	6196
scalar dtelecom_network.content_distribution 	repo-10_price 	0
scalar dtelecom_network.content_distribution 	repo-11_card 	6130
scalar dtelecom_network.content_distribution 	repo-11_price 	0
scalar dtelecom_network.content_distribution 	repo-12_card 	6287
scalar dtelecom_network.content_distribution 	repo-12_price 	0
scalar dtelecom_network.content_distribution 	repo-13_card 	6300
scalar dtelecom_network.content_distribution 	repo-13_price 	0
scalar dtelecom_network.content_distribution 	repo-14_card 	6333
scalar dtelecom_network.content_distribution 	repo-14_price 	0
scalar dtelecom_network.content_distribution 	repo-15_card 	6262
scalar dtelecom_network.content_distribution 	repo-15_price 	0
scalar dtelecom_network.statistics 	stabilization_time 	12137
scalar dtelecom_network.statistics 	p_hit 	0.28210264009672
scalar dtelecom_network.statistics 	interests 	13089.573529412
scalar dtelecom_network.statistics 	data 	7434.7794117647
scalar dtelecom_network.statistics 	hdistance 	1.7945617245666
scalar dtelecom_network.statistics 	avg_time 	0.021581105989
scalar dtelecom_network.statistics 	downloads 	384485
scalar dtelecom_network.statistics 	total_cost 	0
scalar dtelecom_network.statistics 	total_replicas 	100000
scalar dtelecom_network.statistics 	inner_hit 	0.5203844103151
scalar dtelecom_network.node[0].core_layer 	interests[0] 	2160
scalar dtelecom_network.node[0].core_layer 	data[0] 	1279
scalar dtelecom_network.node[0].core_layer 	repo_int[0] 	184405
scalar dtelecom_network.node[0].content_store 	p_hit[0] 	0.40787037037037
scalar dtelecom_network.node[0].content_store 	hits[0] 	881
scalar dtelecom_network.node[0].content_store 	misses[0] 	1279
scalar dtelecom_network.node[0].content_store 	decision_yes[0] 	6
scalar dtelecom_network.node[0].content_store 	decision_no[0] 	1273
scalar dtelecom_network.node[0].content_store 	decision_ratio[0] 	0.0046911649726349
scalar dtelecom_network.node[1].core_layer 	interests[1] 	174858
scalar dtelecom_network.node[1].core_layer 	data[1] 	167591
scalar dtelecom_network.node[1].content_store 	p_hit[1] 	0.041450777202073
scalar dtelecom_network.node[1].content_store 	hits[1] 	7248
scalar dtelecom_network.node[1].content_store 	misses[1] 	167610
scalar dtelecom_network.node[1].content_store 	decision_yes[1] 	849
scalar dtelecom_network.node[1].content_store 	decision_no[1] 	166742
scalar dtelecom_network.node[1].content_store 	decision_ratio[1] 	0.0050659044936781
scalar dtelecom_network.node[2].core_layer 	interests[2] 	3149
scalar dtelecom_network.node[2].core_layer 	data[2] 	1058
scalar dtelecom_network.node[2].content_store 	p_hit[2] 	0.66370276278184
scalar dtelecom_network.node[2].content_store 	hits[2] 	2090
scalar dtelecom_network.node[2].content_store 	misses[2] 	1059
scalar dtelecom_network.node[2].content_store 	decision_yes[2] 	7
scalar dtelecom_network.node[2].content_store 	decision_no[2] 	1051
scalar dtelecom_network.node[2].content_store 	decision_ratio[2] 	0.0066162570888469
scalar dtelecom_network.node[3].core_layer 	interests[3] 	24399
scalar dtelecom_network.node[3].core_layer 	data[3] 	9354
scalar dtelecom_network.node[3].content_store 	p_hit[3] 	0.61658264682979
scalar dtelecom_network.node[3].content_store 	hits[3] 	15044
scalar dtelecom_network.node[3].content_store 	misses[3] 	9355
scalar dtelecom_network.node[3].content_store 	decision_yes[3] 	38
scalar dtelecom_network.node[3].content_store 	decision_no[3] 	9316
scalar dtelecom_network.node[3].content_store 	decision_ratio[3] 	0.0040624331836647
scalar dtelecom_network.node[4].core_layer 	interests[4] 	55689
scalar dtelecom_network.node[4].core_layer 	data[4] 	40046
scalar dtelecom_network.node[4].content_store 	p_hit[4] 	0.28068379751836
scalar dtelecom_network.node[4].content_store 	hits[4] 	15631
scalar dtelecom_network.node[4].content_store 	misses[4] 	40058
scalar dtelecom_network.node[4].content_store 	decision_yes[4] 	205
scalar dtelecom_network.node[4].content_store 	decision_no[4] 	39841
scalar dtelecom_network.node[4].content_store 	decision_ratio[4] 	0.005119113020027
scalar dtelecom_network.node[5].core_layer 	interests[5] 	0
scalar dtelecom_network.node[5].core_layer 	data[5] 	0
scalar dtelecom_network.node[5].content_store 	p_hit[5] 	-nan
scalar dtelecom_network.node[5].content_store 	hits[5] 	0
scalar dtelecom_network.node[5].content_store 	misses[5] 	0
scalar dtelecom_network.node[5].content_store 	decision_yes[5] 	0
scalar dtelecom_network.node[5].content_store 	decision_no[5] 	0
scalar dtelecom_network.node[5].content_store 	decision_ratio[5] 	0
scalar dtelecom_network.node[6].core_layer 	interests[6] 	14227
scalar dtelecom_network.node[6].core_layer 	repo_load[6] 	10918
scalar dtelecom_network.node[6].core_layer 	data[6] 	0
scalar dtelecom_network.node[6].content_store 	p_hit[6] 	0.23258592816476
scalar dtelecom_network.node[6].content_store 	hits[6] 	3309
scalar dtelecom_network.node[6].content_store 	misses[6] 	10918
scalar dtelecom_network.node[6].content_store 	decision_yes[6] 	62
scalar dtelecom_network.node[6].content_store 	decision_no[6] 	10856
scalar dtelecom_network.node[6].content_store 	decision_ratio[6] 	0.005678695731819
scalar dtelecom_network.node[7].core_layer 	interests[7] 	0
scalar dtelecom_network.node[7].core_layer 	data[7] 	0
scalar dtelecom_network.node[7].content_store 	p_hit[7] 	-nan
scalar dtelecom_network.node[7].content_store 	hits[7] 	0
scalar dtelecom_network.node[7].content_store 	misses[7] 	0
scalar dtelecom_network.node[7].content_store 	decision_yes[7] 	0
scalar dtelecom_network.node[7].content_store 	decision_no[7] 	0
scalar dtelecom_network.node[7].content_store 	decision_ratio[7] 	0
scalar dtelecom_network.node[8].core_layer 	interests[8] 	13464
scalar dtelecom_network.node[8].core_layer 	data[8] 	9122
scalar dtelecom_network.node[8].content_store 	p_hit[8] 	0.32241532976827
scalar dtelecom_network.node[8].content_store 	hits[8] 	4341
scalar dtelecom_network.node[8].content_store 	misses[8] 	9123
scalar dtelecom_network.node[8].content_store 	decision_yes[8] 	37
scalar dtelecom_network.node[8].content_store 	decision_no[8] 	9085
scalar dtelecom_network.node[8].content_store 	decision_ratio[8] 	0.004056128042096
scalar dtelecom_network.node[9].core_layer 	interests[9] 	15341
scalar dtelecom_network.node[9].core_layer 	data[9] 	9712
scalar dtelecom_network.node[9].content_store 	p_hit[9] 	0.36686004823675
scalar dtelecom_network.node[9].content_store 	hits[9] 	5628
scalar dtelecom_network.node[9].content_store 	misses[9] 	9713
scalar dtelecom_network.node[9].content_store 	decision_yes[9] 	47
scalar dtelecom_network.node[9].content_store 	decision_no[9] 	9665
scalar dtelecom_network.node[9].content_store 	decision_ratio[9] 	0.004839373970346
scalar dtelecom_network.node[10].core_layer 	interests[10] 	12627
scalar dtelecom_network.node[10].core_layer 	repo_load[10] 	10819
scalar dtelecom_network.node[10].core_layer 	data[10] 	0
scalar dtelecom_network.node[10].content_store 	p_hit[10] 	0.1431852379821
scalar dtelecom_network.node[10].content_store 	hits[10] 	1808
scalar dtelecom_network.node[10].content_store 	misses[10] 	10819
scalar dtelecom_network.node[10].content_store 	decision_yes[10] 	45
scalar dtelecom_network.node[10].content_store 	decision_no[10] 	10774
scalar dtelecom_network.node[10].content_store 	decision_ratio[10] 	0.0041593492929106
scalar dtelecom_network.node[11].core_layer 	interests[11] 	0
scalar dtelecom_network.node[11].core_layer 	data[11] 	0
scalar dtelecom_network.node[11].content_store 	p_hit[11] 	-nan
scalar dtelecom_network.node[11].content_store 	hits[11] 	0
scalar dtelecom_network.node[11].content_store 	misses[11] 	0
scalar dtelecom_network.node[11].content_store 	decision_yes[11] 	0
scalar dtelecom_network.node[11].content_store 	decision_no[11] 	0
scalar dtelecom_network.node[11].content_store 	decision_ratio[11] 	0
scalar dtelecom_network.node[12].core_layer 	interests[12] 	0
scalar dtelecom_network.node[12].core_layer 	data[12] 	0
scalar dtelecom_network.node[12].content_store 	p_hit[12] 	-nan
scalar dtelecom_network.node[12].content_store 	hits[12] 	0
scalar dtelecom_network.node[12].content_store 	misses[12] 	0
scalar dtelecom_network.node[12].content_store 	decision_yes[12] 	0
scalar dtelecom_network.node[12].content_store 	decision_no[12] 	0
scalar dtelecom_network.node[12].content_store 	decision_ratio[12] 	0
scalar dtelecom_network.node[13].core_layer 	interests[13] 	0
scalar dtelecom_network.node[13].core_layer 	data[13] 	0
scalar dtelecom_network.node[13].content_store 	p_hit[13] 	-nan
scalar dtelecom_network.node[13].content_store 	hits[13] 	0
scalar dtelecom_network.node[13].content_store 	misses[13] 	0
scalar dtelecom_network.node[13].content_store 	decision_yes[13] 	0
scalar dtelecom_network.node[13].content_store 	decision_no[13] 	0
scalar dtelecom_network.node[13].content_store 	decision_ratio[13] 	0
scalar dtelecom_network.node[14].core_layer 	interests[14] 	0
scalar dtelecom_network.node[14].core_layer 	data[14] 	0
scalar dtelecom_network.node[14].content_store 	p_hit[14] 	-nan
scalar dtelecom_network.node[14].content_store 	hits[14] 	0
scalar dtelecom_network.node[14].content_store 	misses[14] 	0
scalar dtelecom_network.node[14].content_store 	decision_yes[14] 	0
scalar dtelecom_network.node[14].content_store 	decision_no[14] 	0
scalar dtelecom_network.node[14].content_store 	decision_ratio[14] 	0
scalar dtelecom_network.node[15].core_layer 	interests[15] 	0
scalar dtelecom_network.node[15].core_layer 	data[15] 	0
scalar dtelecom_network.node[15].content_store 	p_hit[15] 	-nan
scalar dtelecom_network.node[15].content_store 	hits[15] 	0
scalar dtelecom_network.node[15].content_store 	misses[15] 	0
scalar dtelecom_network.node[15].content_store 	decision_yes[15] 	0
scalar dtelecom_network.node[15].content_store 	decision_no[15] 	0
scalar dtelecom_network.node[15].content_store 	decision_ratio[15] 	0
scalar dtelecom_network.node[16].core_layer 	interests[16] 	12737
scalar dtelecom_network.node[16].core_layer 	repo_load[16] 	10798
scalar dtelecom_network.node[16].core_layer 	data[16] 	0
scalar dtelecom_network.node[16].content_store 	p_hit[16] 	0.15223364999607
scalar dtelecom_network.node[16].content_store 	hits[16] 	1939
scalar dtelecom_network.node[16].content_store 	misses[16] 	10798
scalar dtelecom_network.node[16].content_store 	decision_yes[16] 	55
scalar dtelecom_network.node[16].content_store 	decision_no[16] 	10743
scalar dtelecom_network.node[16].content_store 	decision_ratio[16] 	0.0050935358399704
scalar dtelecom_network.node[17].core_layer 	interests[17] 	13873
scalar dtelecom_network.node[17].core_layer 	data[17] 	9407
scalar dtelecom_network.node[17].content_store 	p_hit[17] 	0.32155986448497
scalar dtelecom_network.node[17].content_store 	hits[17] 	4461
scalar dtelecom_network.node[17].content_store 	misses[17] 	9412
scalar dtelecom_network.node[17].content_store 	decision_yes[17] 	51
scalar dtelecom_network.node[17].content_store 	decision_no[17] 	9356
scalar dtelecom_network.node[17].content_store 	decision_ratio[17] 	0.0054214946316573
scalar dtelecom_network.node[18].core_layer 	interests[18] 	12634
scalar dtelecom_network.node[18].core_layer 	repo_load[18] 	10866
scalar dtelecom_network.node[18].core_layer 	data[18] 	0
scalar dtelecom_network.node[18].content_store 	p_hit[18] 	0.13993984486307
scalar dtelecom_network.node[18].content_store 	hits[18] 	1768
scalar dtelecom_network.node[18].content_store 	misses[18] 	10866
scalar dtelecom_network.node[18].content_store 	decision_yes[18] 	52
scalar dtelecom_network.node[18].content_store 	decision_no[18] 	10814
scalar dtelecom_network.node[18].content_store 	decision_ratio[18] 	0.0047855696668507
scalar dtelecom_network.node[19].core_layer 	interests[19] 	0
scalar dtelecom_network.node[19].core_layer 	data[19] 	0
scalar dtelecom_network.node[19].content_store 	p_hit[19] 	-nan
scalar dtelecom_network.node[19].content_store 	hits[19] 	0
scalar dtelecom_network.node[19].content_store 	misses[19] 	0
scalar dtelecom_network.node[19].content_store 	decision_yes[19] 	0
scalar dtelecom_network.node[19].content_store 	decision_no[19] 	0
scalar dtelecom_network.node[19].content_store 	decision_ratio[19] 	0
scalar dtelecom_network.node[20].core_layer 	interests[20] 	0
scalar dtelecom_network.node[20].core_layer 	data[20] 	0
scalar dtelecom_network.node[20].content_store 	p_hit[20] 	-nan
scalar dtelecom_network.node[20].content_store 	hits[20] 	0
scalar dtelecom_network.node[20].content_store 	misses[20] 	0
scalar dtelecom_network.node[20].content_store 	decision_yes[20] 	0
scalar dtelecom_network.node[20].content_store 	decision_no[20] 	0
scalar dtelecom_network.node[20].content_store 	decision_ratio[20] 	0
scalar dtelecom_network.node[21].core_layer 	interests[21] 	0
scalar dtelecom_network.node[21].core_layer 	data[21] 	0
scalar dtelecom_network.node[21].content_store 	p_hit[21] 	-nan
scalar dtelecom_network.node[21].content_store 	hits[21] 	0
scalar dtelecom_network.node[21].content_store 	misses[21] 	0
scalar dtelecom_network.node[21].content_store 	decision_yes[21] 	0
scalar dtelecom_network.node[21].content_store 	decision_no[21] 	0
scalar dtelecom_network.node[21].content_store 	decision_ratio[21] 	0
scalar dtelecom_network.node[22].core_layer 	interests[22] 	13521
scalar dtelecom_network.node[22].core_layer 	data[22] 	9340
scalar dtelecom_network.node[22].content_store 	p_hit[22] 	0.30900081354929
scalar dtelecom_network.node[22].content_store 	hits[22] 	4178
scalar dtelecom_network.node[22].content_store 	misses[22] 	9343
scalar dtelecom_network.node[22].content_store 	decision_yes[22] 	39
scalar dtelecom_network.node[22].content_store 	decision_no[22] 	9301
scalar dtelecom_network.node[22].content_store 	decision_ratio[22] 	0.0041755888650964
scalar dtelecom_network.node[23].core_layer 	interests[23] 	38053
scalar dtelecom_network.node[23].core_layer 	repo_load[23] 	12553
scalar dtelecom_network.node[23].core_layer 	data[23] 	18285
scalar dtelecom_network.node[23].content_store 	p_hit[23] 	0.18952513599453
scalar dtelecom_network.node[23].content_store 	hits[23] 	7212
scalar dtelecom_network.node[23].content_store 	misses[23] 	30841
scalar dtelecom_network.node[23].content_store 	decision_yes[23] 	164
scalar dtelecom_network.node[23].content_store 	decision_no[23] 	30674
scalar dtelecom_network.node[23].content_store 	decision_ratio[23] 	0.0053181140151761
scalar dtelecom_network.node[24].core_layer 	interests[24] 	13351
scalar dtelecom_network.node[24].core_layer 	repo_load[24] 	11571
scalar dtelecom_network.node[24].core_layer 	data[24] 	0
scalar dtelecom_network.node[24].content_store 	p_hit[24] 	0.1333233465658
scalar dtelecom_network.node[24].content_store 	hits[24] 	1780
scalar dtelecom_network.node[24].content_store 	misses[24] 	11571
scalar dtelecom_network.node[24].content_store 	decision_yes[24] 	43
scalar dtelecom_network.node[24].content_store 	decision_no[24] 	11528
scalar dtelecom_network.node[24].content_store 	decision_ratio[24] 	0.0037161870192723
scalar dtelecom_network.node[25].core_layer 	interests[25] 	13017
scalar dtelecom_network.node[25].core_layer 	repo_load[25] 	11232
scalar dtelecom_network.node[25].core_layer 	data[25] 	0
scalar dtelecom_network.node[25].content_store 	p_hit[25] 	0.1371283705923
scalar dtelecom_network.node[25].content_store 	hits[25] 	1785
scalar dtelecom_network.node[25].content_store 	misses[25] 	11232
scalar dtelecom_network.node[25].content_store 	decision_yes[25] 	54
scalar dtelecom_network.node[25].content_store 	decision_no[25] 	11178
scalar dtelecom_network.node[25].content_store 	decision_ratio[25] 	0.0048076923076923
scalar dtelecom_network.node[26].core_layer 	interests[26] 	2938
scalar dtelecom_network.node[26].core_layer 	data[26] 	1579
scalar dtelecom_network.node[26].content_store 	p_hit[26] 	0.46255956432948
scalar dtelecom_network.node[26].content_store 	hits[26] 	1359
scalar dtelecom_network.node[26].content_store 	misses[26] 	1579
scalar dtelecom_network.node[26].content_store 	decision_yes[26] 	8
scalar dtelecom_network.node[26].content_store 	decision_no[26] 	1571
scalar dtelecom_network.node[26].content_store 	decision_ratio[26] 	0.0050664977834072
scalar dtelecom_network.node[27].core_layer 	interests[27] 	12845
scalar dtelecom_network.node[27].core_layer 	repo_load[27] 	11068
scalar dtelecom_network.node[27].core_layer 	data[27] 	0
scalar dtelecom_network.node[27].content_store 	p_hit[27] 	0.1383417672246
scalar dtelecom_network.node[27].content_store 	hits[27] 	1777
scalar dtelecom_network.node[27].content_store 	misses[27] 	11068
scalar dtelecom_network.node[27].content_store 	decision_yes[27] 	46
scalar dtelecom_network.node[27].content_store 	decision_no[27] 	11022
scalar dtelecom_network.node[27].content_store 	decision_ratio[27] 	0.0041561257679798
scalar dtelecom_network.node[28].core_layer 	interests[28] 	25769
scalar dtelecom_network.node[28].core_layer 	repo_load[28] 	12055
scalar dtelecom_network.node[28].core_layer 	data[28] 	8985
scalar dtelecom_network.node[28].content_store 	p_hit[28] 	0.18347626993675
scalar dtelecom_network.node[28].content_store 	hits[28] 	4728
scalar dtelecom_network.node[28].content_store 	misses[28] 	21041
scalar dtelecom_network.node[28].content_store 	decision_yes[28] 	104
scalar dtelecom_network.node[28].content_store 	decision_no[28] 	20936
scalar dtelecom_network.node[28].content_store 	decision_ratio[28] 	0.0049429657794677
scalar dtelecom_network.node[29].core_layer 	interests[29] 	0
scalar dtelecom_network.node[29].core_layer 	data[29] 	0
scalar dtelecom_network.node[29].content_store 	p_hit[29] 	-nan
scalar dtelecom_network.node[29].content_store 	hits[29] 	0
scalar dtelecom_network.node[29].content_store 	misses[29] 	0
scalar dtelecom_network.node[29].content_store 	decision_yes[29] 	0
scalar dtelecom_network.node[29].content_store 	decision_no[29] 	0
scalar dtelecom_network.node[29].content_store 	decision_ratio[29] 	0
scalar dtelecom_network.node[30].core_layer 	interests[30] 	13545
scalar dtelecom_network.node[30].core_layer 	data[30] 	9192
scalar dtelecom_network.node[30].content_store 	p_hit[30] 	0.32144702842377
scalar dtelecom_network.node[30].content_store 	hits[30] 	4354
scalar dtelecom_network.node[30].content_store 	misses[30] 	9191
scalar dtelecom_network.node[30].content_store 	decision_yes[30] 	38
scalar dtelecom_network.node[30].content_store 	decision_no[30] 	9154
scalar dtelecom_network.node[30].content_store 	decision_ratio[30] 	0.0041340295909487
scalar dtelecom_network.node[31].core_layer 	interests[31] 	25190
scalar dtelecom_network.node[31].core_layer 	repo_load[31] 	11885
scalar dtelecom_network.node[31].core_layer 	data[31] 	8978
scalar dtelecom_network.node[31].content_store 	p_hit[31] 	0.17173481540294
scalar dtelecom_network.node[31].content_store 	hits[31] 	4326
scalar dtelecom_network.node[31].content_store 	misses[31] 	20864
scalar dtelecom_network.node[31].content_store 	decision_yes[31] 	118
scalar dtelecom_network.node[31].content_store 	decision_no[31] 	20745
scalar dtelecom_network.node[31].content_store 	decision_ratio[31] 	0.0056559459329914
scalar dtelecom_network.node[32].core_layer 	interests[32] 	13326
scalar dtelecom_network.node[32].core_layer 	data[32] 	9242
scalar dtelecom_network.node[32].content_store 	p_hit[32] 	0.30639351643404
scalar dtelecom_network.node[32].content_store 	hits[32] 	4083
scalar dtelecom_network.node[32].content_store 	misses[32] 	9243
scalar dtelecom_network.node[32].content_store 	decision_yes[32] 	50
scalar dtelecom_network.node[32].content_store 	decision_no[32] 	9192
scalar dtelecom_network.node[32].content_store 	decision_ratio[32] 	0.0054100843973166
scalar dtelecom_network.node[33].core_layer 	interests[33] 	14258
scalar dtelecom_network.node[33].core_layer 	data[33] 	9181
scalar dtelecom_network.node[33].content_store 	p_hit[33] 	0.35601066068172
scalar dtelecom_network.node[33].content_store 	hits[33] 	5076
scalar dtelecom_network.node[33].content_store 	misses[33] 	9182
scalar dtelecom_network.node[33].content_store 	decision_yes[33] 	39
scalar dtelecom_network.node[33].content_store 	decision_no[33] 	9142
scalar dtelecom_network.node[33].content_store 	decision_ratio[33] 	0.00424790327851
scalar dtelecom_network.node[34].core_layer 	interests[34] 	0
scalar dtelecom_network.node[34].core_layer 	data[34] 	0
scalar dtelecom_network.node[34].content_store 	p_hit[34] 	-nan
scalar dtelecom_network.node[34].content_store 	hits[34] 	0
scalar dtelecom_network.node[34].content_store 	misses[34] 	0
scalar dtelecom_network.node[34].content_store 	decision_yes[34] 	0
scalar dtelecom_network.node[34].content_store 	decision_no[34] 	0
scalar dtelecom_network.node[34].content_store 	decision_ratio[34] 	0
scalar dtelecom_network.node[35].core_layer 	interests[35] 	0
scalar dtelecom_network.node[35].core_layer 	data[35] 	0
scalar dtelecom_network.node[35].content_store 	p_hit[35] 	-nan
scalar dtelecom_network.node[35].content_store 	hits[35] 	0
scalar dtelecom_network.node[35].content_store 	misses[35] 	0
scalar dtelecom_network.node[35].content_store 	decision_yes[35] 	0
scalar dtelecom_network.node[35].content_store 	decision_no[35] 	0
scalar dtelecom_network.node[35].content_store 	decision_ratio[35] 	0
scalar dtelecom_network.node[36].core_layer 	interests[36] 	13773
scalar dtelecom_network.node[36].core_layer 	data[36] 	9210
scalar dtelecom_network.node[36].content_store 	p_hit[36] 	0.33115515864372
scalar dtelecom_network.node[36].content_store 	hits[36] 	4561
scalar dtelecom_network.node[36].content_store 	misses[36] 	9212
scalar dtelecom_network.node[36].content_store 	decision_yes[36] 	42
scalar dtelecom_network.node[36].content_store 	decision_no[36] 	9168
scalar dtelecom_network.node[36].content_store 	decision_ratio[36] 	0.0045602605863192
scalar dtelecom_network.node[37].core_layer 	interests[37] 	13902
scalar dtelecom_network.node[37].core_layer 	data[37] 	9298
scalar dtelecom_network.node[37].content_store 	p_hit[37] 	0.33088764206589
scalar dtelecom_network.node[37].content_store 	hits[37] 	4600
scalar dtelecom_network.node[37].content_store 	misses[37] 	9302
scalar dtelecom_network.node[37].content_store 	decision_yes[37] 	38
scalar dtelecom_network.node[37].content_store 	decision_no[37] 	9260
scalar dtelecom_network.node[37].content_store 	decision_ratio[37] 	0.00408690040869
scalar dtelecom_network.node[38].core_layer 	interests[38] 	0
scalar dtelecom_network.node[38].core_layer 	data[38] 	0
scalar dtelecom_network.node[38].content_store 	p_hit[38] 	-nan
scalar dtelecom_network.node[38].content_store 	hits[38] 	0
scalar dtelecom_network.node[38].content_store 	misses[38] 	0
scalar dtelecom_network.node[38].content_store 	decision_yes[38] 	0
scalar dtelecom_network.node[38].content_store 	decision_no[38] 	0
scalar dtelecom_network.node[38].content_store 	decision_ratio[38] 	0
scalar dtelecom_network.node[39].core_layer 	interests[39] 	0
scalar dtelecom_network.node[39].core_layer 	data[39] 	0
scalar dtelecom_network.node[39].content_store 	p_hit[39] 	-nan
scalar dtelecom_network.node[39].content_store 	hits[39] 	0
scalar dtelecom_network.node[39].content_store 	misses[39] 	0
scalar dtelecom_network.node[39].content_store 	decision_yes[39] 	0
scalar dtelecom_network.node[39].content_store 	decision_no[39] 	0
scalar dtelecom_network.node[39].content_store 	decision_ratio[39] 	0
scalar dtelecom_network.node[40].core_layer 	interests[40] 	15083
scalar dtelecom_network.node[40].core_layer 	data[40] 	9261
scalar dtelecom_network.node[40].content_store 	p_hit[40] 	0.38599748060731
scalar dtelecom_network.node[40].content_store 	hits[40] 	5822
scalar dtelecom_network.node[40].content_store 	misses[40] 	9261
scalar dtelecom_network.node[40].content_store 	decision_yes[40] 	54
scalar dtelecom_network.node[40].content_store 	decision_no[40] 	9207
scalar dtelecom_network.node[40].content_store 	decision_ratio[40] 	0.0058309037900875
scalar dtelecom_network.node[41].core_layer 	interests[41] 	0
scalar dtelecom_network.node[41].core_layer 	data[41] 	0
scalar dtelecom_network.node[41].content_store 	p_hit[41] 	-nan
scalar dtelecom_network.node[41].content_store 	hits[41] 	0
scalar dtelecom_network.node[41].content_store 	misses[41] 	0
scalar dtelecom_network.node[41].content_store 	decision_yes[41] 	0
scalar dtelecom_network.node[41].content_store 	decision_no[41] 	0
scalar dtelecom_network.node[41].content_store 	decision_ratio[41] 	0
scalar dtelecom_network.node[42].core_layer 	interests[42] 	25267
scalar dtelecom_network.node[42].core_layer 	repo_load[42] 	12069
scalar dtelecom_network.node[42].core_layer 	data[42] 	8786
scalar dtelecom_network.node[42].content_store 	p_hit[42] 	0.17461511061859
scalar dtelecom_network.node[42].content_store 	hits[42] 	4412
scalar dtelecom_network.node[42].content_store 	misses[42] 	20855
scalar dtelecom_network.node[42].content_store 	decision_yes[42] 	81
scalar dtelecom_network.node[42].content_store 	decision_no[42] 	20774
scalar dtelecom_network.node[42].content_store 	decision_ratio[42] 	0.0038839606808919
scalar dtelecom_network.node[43].core_layer 	interests[43] 	0
scalar dtelecom_network.node[43].core_layer 	data[43] 	0
scalar dtelecom_network.node[43].content_store 	p_hit[43] 	-nan
scalar dtelecom_network.node[43].content_store 	hits[43] 	0
scalar dtelecom_network.node[43].content_store 	misses[43] 	0
scalar dtelecom_network.node[43].content_store 	decision_yes[43] 	0
scalar dtelecom_network.node[43].content_store 	decision_no[43] 	0
scalar dtelecom_network.node[43].content_store 	decision_ratio[43] 	0
scalar dtelecom_network.node[44].core_layer 	interests[44] 	12295
scalar dtelecom_network.node[44].core_layer 	repo_load[44] 	10594
scalar dtelecom_network.node[44].core_layer 	data[44] 	0
scalar dtelecom_network.node[44].content_store 	p_hit[44] 	0.13834892232615
scalar dtelecom_network.node[44].content_store 	hits[44] 	1701
scalar dtelecom_network.node[44].content_store 	misses[44] 	10594
scalar dtelecom_network.node[44].content_store 	decision_yes[44] 	61
scalar dtelecom_network.node[44].content_store 	decision_no[44] 	10533
scalar dtelecom_network.node[44].content_store 	decision_ratio[44] 	0.0057579762129507
scalar dtelecom_network.node[45].core_layer 	interests[45] 	14578
scalar dtelecom_network.node[45].core_layer 	data[45] 	9400
scalar dtelecom_network.node[45].content_store 	p_hit[45] 	0.35505556317739
scalar dtelecom_network.node[45].content_store 	hits[45] 	5176
scalar dtelecom_network.node[45].content_store 	misses[45] 	9402
scalar dtelecom_network.node[45].content_store 	decision_yes[45] 	48
scalar dtelecom_network.node[45].content_store 	decision_no[45] 	9352
scalar dtelecom_network.node[45].content_store 	decision_ratio[45] 	0.0051063829787234
scalar dtelecom_network.node[46].core_layer 	interests[46] 	25659
scalar dtelecom_network.node[46].core_layer 	repo_load[46] 	12567
scalar dtelecom_network.node[46].core_layer 	data[46] 	8969
scalar dtelecom_network.node[46].content_store 	p_hit[46] 	0.16068436026346
scalar dtelecom_network.node[46].content_store 	hits[46] 	4123
scalar dtelecom_network.node[46].content_store 	misses[46] 	21536
scalar dtelecom_network.node[46].content_store 	decision_yes[46] 	120
scalar dtelecom_network.node[46].content_store 	decision_no[46] 	21416
scalar dtelecom_network.node[46].content_store 	decision_ratio[46] 	0.0055720653789004
scalar dtelecom_network.node[47].core_layer 	interests[47] 	0
scalar dtelecom_network.node[47].core_layer 	data[47] 	0
scalar dtelecom_network.node[47].content_store 	p_hit[47] 	-nan
scalar dtelecom_network.node[47].content_store 	hits[47] 	0
scalar dtelecom_network.node[47].content_store 	misses[47] 	0
scalar dtelecom_network.node[47].content_store 	decision_yes[47] 	0
scalar dtelecom_network.node[47].content_store 	decision_no[47] 	0
scalar dtelecom_network.node[47].content_store 	decision_ratio[47] 	0
scalar dtelecom_network.node[48].core_layer 	interests[48] 	13901
scalar dtelecom_network.node[48].core_layer 	data[48] 	9315
scalar dtelecom_network.node[48].content_store 	p_hit[48] 	0.32983238615927
scalar dtelecom_network.node[48].content_store 	hits[48] 	4585
scalar dtelecom_network.node[48].content_store 	misses[48] 	9316
scalar dtelecom_network.node[48].content_store 	decision_yes[48] 	46
scalar dtelecom_network.node[48].content_store 	decision_no[48] 	9269
scalar dtelecom_network.node[48].content_store 	decision_ratio[48] 	0.0049382716049383
scalar dtelecom_network.node[49].core_layer 	interests[49] 	13711
scalar dtelecom_network.node[49].core_layer 	data[49] 	9244
scalar dtelecom_network.node[49].content_store 	p_hit[49] 	0.32579680548465
scalar dtelecom_network.node[49].content_store 	hits[49] 	4467
scalar dtelecom_network.node[49].content_store 	misses[49] 	9244
scalar dtelecom_network.node[49].content_store 	decision_yes[49] 	45
scalar dtelecom_network.node[49].content_store 	decision_no[49] 	9199
scalar dtelecom_network.node[49].content_store 	decision_ratio[49] 	0.0048680225010818
scalar dtelecom_network.node[50].core_layer 	interests[50] 	13353
scalar dtelecom_network.node[50].core_layer 	data[50] 	9103
scalar dtelecom_network.node[50].content_store 	p_hit[50] 	0.3180558675953
scalar dtelecom_network.node[50].content_store 	hits[50] 	4247
scalar dtelecom_network.node[50].content_store 	misses[50] 	9106
scalar dtelecom_network.node[50].content_store 	decision_yes[50] 	42
scalar dtelecom_network.node[50].content_store 	decision_no[50] 	9061
scalar dtelecom_network.node[50].content_store 	decision_ratio[50] 	0.0046138635614633
scalar dtelecom_network.node[51].core_layer 	interests[51] 	14260
scalar dtelecom_network.node[51].core_layer 	data[51] 	9291
scalar dtelecom_network.node[51].content_store 	p_hit[51] 	0.34852734922861
scalar dtelecom_network.node[51].content_store 	hits[51] 	4970
scalar dtelecom_network.node[51].content_store 	misses[51] 	9290
scalar dtelecom_network.node[51].content_store 	decision_yes[51] 	41
scalar dtelecom_network.node[51].content_store 	decision_no[51] 	9250
scalar dtelecom_network.node[51].content_store 	decision_ratio[51] 	0.0044128726724787
scalar dtelecom_network.node[52].core_layer 	interests[52] 	0
scalar dtelecom_network.node[52].core_layer 	data[52] 	0
scalar dtelecom_network.node[52].content_store 	p_hit[52] 	-nan
scalar dtelecom_network.node[52].content_store 	hits[52] 	0
scalar dtelecom_network.node[52].content_store 	misses[52] 	0
scalar dtelecom_network.node[52].content_store 	decision_yes[52] 	0
scalar dtelecom_network.node[52].content_store 	decision_no[52] 	0
scalar dtelecom_network.node[52].content_store 	decision_ratio[52] 	0
scalar dtelecom_network.node[53].core_layer 	interests[53] 	14214
scalar dtelecom_network.node[53].core_layer 	data[53] 	9464
scalar dtelecom_network.node[53].content_store 	p_hit[53] 	0.33410721823554
scalar dtelecom_network.node[53].content_store 	hits[53] 	4749
scalar dtelecom_network.node[53].content_store 	misses[53] 	9465
scalar dtelecom_network.node[53].content_store 	decision_yes[53] 	56
scalar dtelecom_network.node[53].content_store 	decision_no[53] 	9408
scalar dtelecom_network.node[53].content_store 	decision_ratio[53] 	0.0059171597633136
scalar dtelecom_network.node[54].core_layer 	interests[54] 	25351
scalar dtelecom_network.node[54].core_layer 	repo_load[54] 	12364
scalar dtelecom_network.node[54].core_layer 	data[54] 	8716
scalar dtelecom_network.node[54].content_store 	p_hit[54] 	0.16839572403455
scalar dtelecom_network.node[54].content_store 	hits[54] 	4269
scalar dtelecom_network.node[54].content_store 	misses[54] 	21082
scalar dtelecom_network.node[54].content_store 	decision_yes[54] 	91
scalar dtelecom_network.node[54].content_store 	decision_no[54] 	20989
scalar dtelecom_network.node[54].content_store 	decision_ratio[54] 	0.0043168880455408
scalar dtelecom_network.node[55].core_layer 	interests[55] 	13628
scalar dtelecom_network.node[55].core_layer 	data[55] 	9174
scalar dtelecom_network.node[55].content_store 	p_hit[55] 	0.32697387731142
scalar dtelecom_network.node[55].content_store 	hits[55] 	4456
scalar dtelecom_network.node[55].content_store 	misses[55] 	9172
scalar dtelecom_network.node[55].content_store 	decision_yes[55] 	51
scalar dtelecom_network.node[55].content_store 	decision_no[55] 	9123
scalar dtelecom_network.node[55].content_store 	decision_ratio[55] 	0.0055591890124264
scalar dtelecom_network.node[56].core_layer 	interests[56] 	13765
scalar dtelecom_network.node[56].core_layer 	data[56] 	9260
scalar dtelecom_network.node[56].content_store 	p_hit[56] 	0.32727933163821
scalar dtelecom_network.node[56].content_store 	hits[56] 	4505
scalar dtelecom_network.node[56].content_store 	misses[56] 	9260
scalar dtelecom_network.node[56].content_store 	decision_yes[56] 	47
scalar dtelecom_network.node[56].content_store 	decision_no[56] 	9213
scalar dtelecom_network.node[56].content_store 	decision_ratio[56] 	0.0050755939524838
scalar dtelecom_network.node[57].core_layer 	interests[57] 	13362
scalar dtelecom_network.node[57].core_layer 	data[57] 	9269
scalar dtelecom_network.node[57].content_store 	p_hit[57] 	0.30616674150576
scalar dtelecom_network.node[57].content_store 	hits[57] 	4091
scalar dtelecom_network.node[57].content_store 	misses[57] 	9271
scalar dtelecom_network.node[57].content_store 	decision_yes[57] 	39
scalar dtelecom_network.node[57].content_store 	decision_no[57] 	9230
scalar dtelecom_network.node[57].content_store 	decision_ratio[57] 	0.0042075736325386
scalar dtelecom_network.node[58].core_layer 	interests[58] 	24802
scalar dtelecom_network.node[58].core_layer 	repo_load[58] 	11734
scalar dtelecom_network.node[58].core_layer 	data[58] 	8853
scalar dtelecom_network.node[58].content_store 	p_hit[58] 	0.16990565276994
scalar dtelecom_network.node[58].content_store 	hits[58] 	4214
scalar dtelecom_network.node[58].content_store 	misses[58] 	20588
scalar dtelecom_network.node[58].content_store 	decision_yes[58] 	92
scalar dtelecom_network.node[58].content_store 	decision_no[58] 	20495
scalar dtelecom_network.node[58].content_store 	decision_ratio[58] 	0.004468839558945
scalar dtelecom_network.node[59].core_layer 	interests[59] 	15575
scalar dtelecom_network.node[59].core_layer 	data[59] 	8977
scalar dtelecom_network.node[59].content_store 	p_hit[59] 	0.42362760834671
scalar dtelecom_network.node[59].content_store 	hits[59] 	6598
scalar dtelecom_network.node[59].content_store 	misses[59] 	8977
scalar dtelecom_network.node[59].content_store 	decision_yes[59] 	55
scalar dtelecom_network.node[59].content_store 	decision_no[59] 	8922
scalar dtelecom_network.node[59].content_store 	decision_ratio[59] 	0.0061267684081542
scalar dtelecom_network.node[60].core_layer 	interests[60] 	0
scalar dtelecom_network.node[60].core_layer 	data[60] 	0
scalar dtelecom_network.node[60].content_store 	p_hit[60] 	-nan
scalar dtelecom_network.node[60].content_store 	hits[60] 	0
scalar dtelecom_network.node[60].content_store 	misses[60] 	0
scalar dtelecom_network.node[60].content_store 	decision_yes[60] 	0
scalar dtelecom_network.node[60].content_store 	decision_no[60] 	0
scalar dtelecom_network.node[60].content_store 	decision_ratio[60] 	0
scalar dtelecom_network.node[61].core_layer 	interests[61] 	0
scalar dtelecom_network.node[61].core_layer 	data[61] 	0
scalar dtelecom_network.node[61].content_store 	p_hit[61] 	-nan
scalar dtelecom_network.node[61].content_store 	hits[61] 	0
scalar dtelecom_network.node[61].content_store 	misses[61] 	0
scalar dtelecom_network.node[61].content_store 	decision_yes[61] 	0
scalar dtelecom_network.node[61].content_store 	decision_no[61] 	0
scalar dtelecom_network.node[61].content_store 	decision_ratio[61] 	0
scalar dtelecom_network.node[62].core_layer 	interests[62] 	12851
scalar dtelecom_network.node[62].core_layer 	data[62] 	9132
scalar dtelecom_network.node[62].content_store 	p_hit[62] 	0.28923819158042
scalar dtelecom_network.node[62].content_store 	hits[62] 	3717
scalar dtelecom_network.node[62].content_store 	misses[62] 	9134
scalar dtelecom_network.node[62].content_store 	decision_yes[62] 	45
scalar dtelecom_network.node[62].content_store 	decision_no[62] 	9087
scalar dtelecom_network.node[62].content_store 	decision_ratio[62] 	0.0049277266754271
scalar dtelecom_network.node[63].core_layer 	interests[63] 	0
scalar dtelecom_network.node[63].core_layer 	data[63] 	0
scalar dtelecom_network.node[63].content_store 	p_hit[63] 	-nan
scalar dtelecom_network.node[63].content_store 	hits[63] 	0
scalar dtelecom_network.node[63].content_store 	misses[63] 	0
scalar dtelecom_network.node[63].content_store 	decision_yes[63] 	0
scalar dtelecom_network.node[63].content_store 	decision_no[63] 	0
scalar dtelecom_network.node[63].content_store 	decision_ratio[63] 	0
scalar dtelecom_network.node[64].core_layer 	interests[64] 	0
scalar dtelecom_network.node[64].core_layer 	data[64] 	0
scalar dtelecom_network.node[64].content_store 	p_hit[64] 	-nan
scalar dtelecom_network.node[64].content_store 	hits[64] 	0
scalar dtelecom_network.node[64].content_store 	misses[64] 	0
scalar dtelecom_network.node[64].content_store 	decision_yes[64] 	0
scalar dtelecom_network.node[64].content_store 	decision_no[64] 	0
scalar dtelecom_network.node[64].content_store 	decision_ratio[64] 	0
scalar dtelecom_network.node[65].core_layer 	interests[65] 	13193
scalar dtelecom_network.node[65].core_layer 	repo_load[65] 	11312
scalar dtelecom_network.node[65].core_layer 	data[65] 	38
scalar dtelecom_network.node[65].content_store 	p_hit[65] 	0.13969529295839
scalar dtelecom_network.node[65].content_store 	hits[65] 	1843
scalar dtelecom_network.node[65].content_store 	misses[65] 	11350
scalar dtelecom_network.node[65].content_store 	decision_yes[65] 	51
scalar dtelecom_network.node[65].content_store 	decision_no[65] 	11299
scalar dtelecom_network.node[65].content_store 	decision_ratio[65] 	0.0044933920704846
scalar dtelecom_network.node[66].core_layer 	interests[66] 	13312
scalar dtelecom_network.node[66].core_layer 	data[66] 	9310
scalar dtelecom_network.node[66].content_store 	p_hit[66] 	0.30048076923077
scalar dtelecom_network.node[66].content_store 	hits[66] 	4000
scalar dtelecom_network.node[66].content_store 	misses[66] 	9312
scalar dtelecom_network.node[66].content_store 	decision_yes[66] 	51
scalar dtelecom_network.node[66].content_store 	decision_no[66] 	9259
scalar dtelecom_network.node[66].content_store 	decision_ratio[66] 	0.0054779806659506
scalar dtelecom_network.node[67].core_layer 	interests[67] 	13285
scalar dtelecom_network.node[67].core_layer 	data[67] 	9144
scalar dtelecom_network.node[67].content_store 	p_hit[67] 	0.31178020323673
scalar dtelecom_network.node[67].content_store 	hits[67] 	4142
scalar dtelecom_network.node[67].content_store 	misses[67] 	9143
scalar dtelecom_network.node[67].content_store 	decision_yes[67] 	45
scalar dtelecom_network.node[67].content_store 	decision_no[67] 	9099
scalar dtelecom_network.node[67].content_store 	decision_ratio[67] 	0.0049212598425197
scalar dtelecom_network.client[3] 	hdistance[3] 	1.2985833333333
scalar dtelecom_network.client[3] 	downloads[3] 	12000
scalar dtelecom_network.client[3] 	avg_time[3] 	0.008941801754
scalar dtelecom_network.client[4] 	hdistance[4] 	1.3322192513369
scalar dtelecom_network.client[4] 	downloads[4] 	11968
scalar dtelecom_network.client[4] 	avg_time[4] 	0.050885050551
scalar dtelecom_network.client[8] 	hdistance[8] 	1.8784202158815
scalar dtelecom_network.client[8] 	downloads[8] 	11951
scalar dtelecom_network.client[8] 	avg_time[8] 	0.013848370462
scalar dtelecom_network.client[9] 	hdistance[9] 	1.7608245715705
scalar dtelecom_network.client[9] 	downloads[9] 	12079
scalar dtelecom_network.client[9] 	avg_time[9] 	0.013635116185
scalar dtelecom_network.client[17] 	hdistance[17] 	1.882328654005
scalar dtelecom_network.client[17] 	downloads[17] 	12110
scalar dtelecom_network.client[17] 	avg_time[17] 	0.012905255246
scalar dtelecom_network.client[22] 	hdistance[22] 	1.8686472502712
scalar dtelecom_network.client[22] 	downloads[22] 	11983
scalar dtelecom_network.client[22] 	avg_time[22] 	0.013393469677
scalar dtelecom_network.client[23] 	hdistance[23] 	1.6134638096845
scalar dtelecom_network.client[23] 	downloads[23] 	11854
scalar dtelecom_network.client[23] 	avg_time[23] 	0.010741106934
scalar dtelecom_network.client[28] 	hdistance[28] 	1.7872866683156
scalar dtelecom_network.client[28] 	downloads[28] 	12129
scalar dtelecom_network.client[28] 	avg_time[28] 	0.015778078679
scalar dtelecom_network.client[30] 	hdistance[30] 	1.8582221102997
scalar dtelecom_network.client[30] 	downloads[30] 	11913
scalar dtelecom_network.client[30] 	avg_time[30] 	0.013697484791
scalar dtelecom_network.client[31] 	hdistance[31] 	1.7463554463554
scalar dtelecom_network.client[31] 	downloads[31] 	12210
scalar dtelecom_network.client[31] 	avg_time[31] 	0.015059280696
scalar dtelecom_network.client[32] 	hdistance[32] 	1.8496808867988
scalar dtelecom_network.client[32] 	downloads[32] 	11908
scalar dtelecom_network.client[32] 	avg_time[32] 	0.012591933641
scalar dtelecom_network.client[33] 	hdistance[33] 	1.7496497733828
scalar dtelecom_network.client[33] 	downloads[33] 	12135
scalar dtelecom_network.client[33] 	avg_time[33] 	0.012163990873
scalar dtelecom_network.client[36] 	hdistance[36] 	1.8360682910658
scalar dtelecom_network.client[36] 	downloads[36] 	12066
scalar dtelecom_network.client[36] 	avg_time[36] 	0.013536766383
scalar dtelecom_network.client[37] 	hdistance[37] 	1.831764019665
scalar dtelecom_network.client[37] 	downloads[37] 	12001
scalar dtelecom_network.client[37] 	avg_time[37] 	0.013451193985
scalar dtelecom_network.client[40] 	hdistance[40] 	1.7130592702658
scalar dtelecom_network.client[40] 	downloads[40] 	12114
scalar dtelecom_network.client[40] 	avg_time[40] 	0.013579537086
scalar dtelecom_network.client[42] 	hdistance[42] 	1.8142440649729
scalar dtelecom_network.client[42] 	downloads[42] 	12005
scalar dtelecom_network.client[42] 	avg_time[42] 	0.014566890148
scalar dtelecom_network.client[45] 	hdistance[45] 	1.815221882489
scalar dtelecom_network.client[45] 	downloads[45] 	12101
scalar dtelecom_network.client[45] 	avg_time[45] 	0.01384883848
scalar dtelecom_network.client[46] 	hdistance[46] 	1.7967105263158
scalar dtelecom_network.client[46] 	downloads[46] 	12160
scalar dtelecom_network.client[46] 	avg_time[46] 	0.014356595438
scalar dtelecom_network.client[48] 	hdistance[48] 	1.8833595106225
scalar dtelecom_network.client[48] 	downloads[48] 	12097
scalar dtelecom_network.client[48] 	avg_time[48] 	0.013608234659
scalar dtelecom_network.client[49] 	hdistance[49] 	1.8640727640222
scalar dtelecom_network.client[49] 	downloads[49] 	11874
scalar dtelecom_network.client[49] 	avg_time[49] 	0.012761951473
scalar dtelecom_network.client[50] 	hdistance[50] 	1.8290376569038
scalar dtelecom_network.client[50] 	downloads[50] 	11950
scalar dtelecom_network.client[50] 	avg_time[50] 	0.012704119917
scalar dtelecom_network.client[51] 	hdistance[51] 	1.7253775443204
scalar dtelecom_network.client[51] 	downloads[51] 	12184
scalar dtelecom_network.client[51] 	avg_time[51] 	0.012288960699
scalar dtelecom_network.client[53] 	hdistance[53] 	1.8530766699572
scalar dtelecom_network.client[53] 	downloads[53] 	12156
scalar dtelecom_network.client[53] 	avg_time[53] 	0.011968824747
scalar dtelecom_network.client[54] 	hdistance[54] 	1.7322814714816
scalar dtelecom_network.client[54] 	downloads[54] 	11852
scalar dtelecom_network.client[54] 	avg_time[54] 	0.013165247017
scalar dtelecom_network.client[55] 	hdistance[55] 	1.8660767463626
scalar dtelecom_network.client[55] 	downloads[55] 	11753
scalar dtelecom_network.client[55] 	avg_time[55] 	0.017948938601
scalar dtelecom_network.client[56] 	hdistance[56] 	1.8311469895728
scalar dtelecom_network.client[56] 	downloads[56] 	11892
scalar dtelecom_network.client[56] 	avg_time[56] 	0.01298512075
scalar dtelecom_network.client[57] 	hdistance[57] 	1.8569637184417
scalar dtelecom_network.client[57] 	downloads[57] 	11962
scalar dtelecom_network.client[57] 	avg_time[57] 	0.012614104324
scalar dtelecom_network.client[58] 	hdistance[58] 	1.7738731218698
scalar dtelecom_network.client[58] 	downloads[58] 	11980
scalar dtelecom_network.client[58] 	avg_time[58] 	0.015561637058
scalar dtelecom_network.client[59] 	hdistance[59] 	1.6648621637378
scalar dtelecom_network.client[59] 	downloads[59] 	12007
scalar dtelecom_network.client[59] 	avg_time[59] 	0.055702383332
scalar dtelecom_network.client[62] 	hdistance[62] 	2.1373326722856
scalar dtelecom_network.client[62] 	downloads[62] 	12102
scalar dtelecom_network.client[62] 	avg_time[62] 	0.053645525699
scalar dtelecom_network.client[66] 	hdistance[66] 	1.9945214576243
scalar dtelecom_network.client[66] 	downloads[66] 	12047
scalar dtelecom_network.client[66] 	avg_time[66] 	0.092110665676
scalar dtelecom_network.client[67] 	hdistance[67] 	1.9812426729191
scalar dtelecom_network.client[67] 	downloads[67] 	11942
scalar dtelecom_network.client[67] 	avg_time[67] 	0.076548916702
