version 2
run General-205-20160819-18:18:58-23511
attr a 0.9
attr cd lce
attr configname General
attr cr lru
attr datetime 20160819-18:18:58
attr experiment General
attr fsize 1
attr inifile hw5115/scenario_A/NRR-LCE.ini
attr iterationvars "$name=tree_4_3, $un=10, $rep=6, $cd=lce, $cr=lru, $fsize=1, $a=0.9, $sl=nrr, $ttl=1000, $variance=0.05"
attr iterationvars2 "$name=tree_4_3, $un=10, $rep=6, $cd=lce, $cr=lru, $fsize=1, $a=0.9, $sl=nrr, $ttl=1000, $variance=0.05, $repetition=0"
attr measurement "$name=tree_4_3, $un=10, $rep=6, $cd=lce, $cr=lru, $fsize=1, $a=0.9, $sl=nrr, $ttl=1000, $variance=0.05"
attr name tree_4_3
attr network networks.${name}_u${un}_r${rep}_network
attr processid 23511
attr rep 6
attr repetition 0
attr replication #0
attr resultdir results
attr runnumber 205
attr seedset 6
attr sl nrr
attr ttl 1000
attr un 10
attr variance 0.05

scalar . 	a 	0.9
scalar . 	fsize 	1
scalar . 	rep 	6
scalar . 	ttl 	1000
scalar . 	un 	10
scalar . 	variance 	0.05
scalar tree_4_3_u10_r6_network.content_distribution 	repo-0 	0
scalar tree_4_3_u10_r6_network.content_distribution 	client-0 	13
scalar tree_4_3_u10_r6_network.content_distribution 	client-1 	14
scalar tree_4_3_u10_r6_network.content_distribution 	client-2 	15
scalar tree_4_3_u10_r6_network.content_distribution 	client-3 	16
scalar tree_4_3_u10_r6_network.content_distribution 	client-4 	17
scalar tree_4_3_u10_r6_network.content_distribution 	client-5 	18
scalar tree_4_3_u10_r6_network.content_distribution 	client-6 	19
scalar tree_4_3_u10_r6_network.content_distribution 	client-7 	20
scalar tree_4_3_u10_r6_network.content_distribution 	client-8 	21
scalar tree_4_3_u10_r6_network.content_distribution 	client-9 	22
scalar tree_4_3_u10_r6_network.content_distribution 	client-10 	23
scalar tree_4_3_u10_r6_network.content_distribution 	client-11 	24
scalar tree_4_3_u10_r6_network.content_distribution 	client-12 	25
scalar tree_4_3_u10_r6_network.content_distribution 	client-13 	26
scalar tree_4_3_u10_r6_network.content_distribution 	client-14 	27
scalar tree_4_3_u10_r6_network.content_distribution 	client-15 	28
scalar tree_4_3_u10_r6_network.content_distribution 	client-16 	29
scalar tree_4_3_u10_r6_network.content_distribution 	client-17 	30
scalar tree_4_3_u10_r6_network.content_distribution 	client-18 	31
scalar tree_4_3_u10_r6_network.content_distribution 	client-19 	32
scalar tree_4_3_u10_r6_network.content_distribution 	client-20 	33
scalar tree_4_3_u10_r6_network.content_distribution 	client-21 	34
scalar tree_4_3_u10_r6_network.content_distribution 	client-22 	35
scalar tree_4_3_u10_r6_network.content_distribution 	client-23 	36
scalar tree_4_3_u10_r6_network.content_distribution 	client-24 	37
scalar tree_4_3_u10_r6_network.content_distribution 	client-25 	38
scalar tree_4_3_u10_r6_network.content_distribution 	client-26 	39
scalar tree_4_3_u10_r6_network.content_distribution 	repo-0_card 	100000
scalar tree_4_3_u10_r6_network.content_distribution 	repo-0_price 	0
scalar tree_4_3_u10_r6_network.statistics 	stabilization_time 	547.4
scalar tree_4_3_u10_r6_network.statistics 	p_hit 	0.209720631235
scalar tree_4_3_u10_r6_network.statistics 	interests 	27273.75
scalar tree_4_3_u10_r6_network.statistics 	data 	19186.425
scalar tree_4_3_u10_r6_network.statistics 	hdistance 	2.9701885657393
scalar tree_4_3_u10_r6_network.statistics 	avg_time 	0.004744396364
scalar tree_4_3_u10_r6_network.statistics 	downloads 	323494
scalar tree_4_3_u10_r6_network.statistics 	total_cost 	0
scalar tree_4_3_u10_r6_network.statistics 	total_replicas 	100000
scalar tree_4_3_u10_r6_network.statistics 	inner_hit 	0.40195490488232
scalar tree_4_3_u10_r6_network.node[0].core_layer 	interests[0] 	193807
scalar tree_4_3_u10_r6_network.node[0].core_layer 	repo_load[0] 	193464
scalar tree_4_3_u10_r6_network.node[0].core_layer 	data[0] 	0
scalar tree_4_3_u10_r6_network.node[0].core_layer 	repo_int[0] 	193464
scalar tree_4_3_u10_r6_network.node[0].content_store 	p_hit[0] 	0.0017698019163395
scalar tree_4_3_u10_r6_network.node[0].content_store 	hits[0] 	343
scalar tree_4_3_u10_r6_network.node[0].content_store 	misses[0] 	193464
scalar tree_4_3_u10_r6_network.node[0].content_store 	decision_yes[0] 	193464
scalar tree_4_3_u10_r6_network.node[0].content_store 	decision_no[0] 	0
scalar tree_4_3_u10_r6_network.node[0].content_store 	decision_ratio[0] 	1
scalar tree_4_3_u10_r6_network.node[1].core_layer 	interests[1] 	150672
scalar tree_4_3_u10_r6_network.node[1].core_layer 	data[1] 	149485
scalar tree_4_3_u10_r6_network.node[1].content_store 	p_hit[1] 	0.0078183073165552
scalar tree_4_3_u10_r6_network.node[1].content_store 	hits[1] 	1178
scalar tree_4_3_u10_r6_network.node[1].content_store 	misses[1] 	149494
scalar tree_4_3_u10_r6_network.node[1].content_store 	decision_yes[1] 	149461
scalar tree_4_3_u10_r6_network.node[1].content_store 	decision_no[1] 	0
scalar tree_4_3_u10_r6_network.node[1].content_store 	decision_ratio[1] 	1
scalar tree_4_3_u10_r6_network.node[2].core_layer 	interests[2] 	60622
scalar tree_4_3_u10_r6_network.node[2].core_layer 	data[2] 	59219
scalar tree_4_3_u10_r6_network.node[2].content_store 	p_hit[2] 	0.023159908943948
scalar tree_4_3_u10_r6_network.node[2].content_store 	hits[2] 	1404
scalar tree_4_3_u10_r6_network.node[2].content_store 	misses[2] 	59218
scalar tree_4_3_u10_r6_network.node[2].content_store 	decision_yes[2] 	59211
scalar tree_4_3_u10_r6_network.node[2].content_store 	decision_no[2] 	0
scalar tree_4_3_u10_r6_network.node[2].content_store 	decision_ratio[2] 	1
scalar tree_4_3_u10_r6_network.node[3].core_layer 	interests[3] 	16972
scalar tree_4_3_u10_r6_network.node[3].core_layer 	data[3] 	13593
scalar tree_4_3_u10_r6_network.node[3].content_store 	p_hit[3] 	0.199092623144
scalar tree_4_3_u10_r6_network.node[3].content_store 	hits[3] 	3379
scalar tree_4_3_u10_r6_network.node[3].content_store 	misses[3] 	13593
scalar tree_4_3_u10_r6_network.node[3].content_store 	decision_yes[3] 	13592
scalar tree_4_3_u10_r6_network.node[3].content_store 	decision_no[3] 	0
scalar tree_4_3_u10_r6_network.node[3].content_store 	decision_ratio[3] 	1
scalar tree_4_3_u10_r6_network.node[4].core_layer 	interests[4] 	47139
scalar tree_4_3_u10_r6_network.node[4].core_layer 	data[4] 	45420
scalar tree_4_3_u10_r6_network.node[4].content_store 	p_hit[4] 	0.036424192282399
scalar tree_4_3_u10_r6_network.node[4].content_store 	hits[4] 	1717
scalar tree_4_3_u10_r6_network.node[4].content_store 	misses[4] 	45422
scalar tree_4_3_u10_r6_network.node[4].content_store 	decision_yes[4] 	45417
scalar tree_4_3_u10_r6_network.node[4].content_store 	decision_no[4] 	0
scalar tree_4_3_u10_r6_network.node[4].content_store 	decision_ratio[4] 	1
scalar tree_4_3_u10_r6_network.node[5].core_layer 	interests[5] 	34839
scalar tree_4_3_u10_r6_network.node[5].core_layer 	data[5] 	31901
scalar tree_4_3_u10_r6_network.node[5].content_store 	p_hit[5] 	0.084302075260484
scalar tree_4_3_u10_r6_network.node[5].content_store 	hits[5] 	2937
scalar tree_4_3_u10_r6_network.node[5].content_store 	misses[5] 	31902
scalar tree_4_3_u10_r6_network.node[5].content_store 	decision_yes[5] 	31898
scalar tree_4_3_u10_r6_network.node[5].content_store 	decision_no[5] 	0
scalar tree_4_3_u10_r6_network.node[5].content_store 	decision_ratio[5] 	1
scalar tree_4_3_u10_r6_network.node[6].core_layer 	interests[6] 	18694
scalar tree_4_3_u10_r6_network.node[6].core_layer 	data[6] 	13974
scalar tree_4_3_u10_r6_network.node[6].content_store 	p_hit[6] 	0.25243393602225
scalar tree_4_3_u10_r6_network.node[6].content_store 	hits[6] 	4719
scalar tree_4_3_u10_r6_network.node[6].content_store 	misses[6] 	13975
scalar tree_4_3_u10_r6_network.node[6].content_store 	decision_yes[6] 	13973
scalar tree_4_3_u10_r6_network.node[6].content_store 	decision_no[6] 	0
scalar tree_4_3_u10_r6_network.node[6].content_store 	decision_ratio[6] 	1
scalar tree_4_3_u10_r6_network.node[7].core_layer 	interests[7] 	51371
scalar tree_4_3_u10_r6_network.node[7].core_layer 	data[7] 	48960
scalar tree_4_3_u10_r6_network.node[7].content_store 	p_hit[7] 	0.046952560783321
scalar tree_4_3_u10_r6_network.node[7].content_store 	hits[7] 	2412
scalar tree_4_3_u10_r6_network.node[7].content_store 	misses[7] 	48959
scalar tree_4_3_u10_r6_network.node[7].content_store 	decision_yes[7] 	48952
scalar tree_4_3_u10_r6_network.node[7].content_store 	decision_no[7] 	0
scalar tree_4_3_u10_r6_network.node[7].content_store 	decision_ratio[7] 	1
scalar tree_4_3_u10_r6_network.node[8].core_layer 	interests[8] 	30124
scalar tree_4_3_u10_r6_network.node[8].core_layer 	data[8] 	28210
scalar tree_4_3_u10_r6_network.node[8].content_store 	p_hit[8] 	0.063470986588766
scalar tree_4_3_u10_r6_network.node[8].content_store 	hits[8] 	1912
scalar tree_4_3_u10_r6_network.node[8].content_store 	misses[8] 	28212
scalar tree_4_3_u10_r6_network.node[8].content_store 	decision_yes[8] 	28209
scalar tree_4_3_u10_r6_network.node[8].content_store 	decision_no[8] 	0
scalar tree_4_3_u10_r6_network.node[8].content_store 	decision_ratio[8] 	1
scalar tree_4_3_u10_r6_network.node[9].core_layer 	interests[9] 	18592
scalar tree_4_3_u10_r6_network.node[9].core_layer 	data[9] 	14020
scalar tree_4_3_u10_r6_network.node[9].content_store 	p_hit[9] 	0.24596600688468
scalar tree_4_3_u10_r6_network.node[9].content_store 	hits[9] 	4573
scalar tree_4_3_u10_r6_network.node[9].content_store 	misses[9] 	14019
scalar tree_4_3_u10_r6_network.node[9].content_store 	decision_yes[9] 	14017
scalar tree_4_3_u10_r6_network.node[9].content_store 	decision_no[9] 	0
scalar tree_4_3_u10_r6_network.node[9].content_store 	decision_ratio[9] 	1
scalar tree_4_3_u10_r6_network.node[10].core_layer 	interests[10] 	50903
scalar tree_4_3_u10_r6_network.node[10].core_layer 	data[10] 	48538
scalar tree_4_3_u10_r6_network.node[10].content_store 	p_hit[10] 	0.046480561067128
scalar tree_4_3_u10_r6_network.node[10].content_store 	hits[10] 	2366
scalar tree_4_3_u10_r6_network.node[10].content_store 	misses[10] 	48537
scalar tree_4_3_u10_r6_network.node[10].content_store 	decision_yes[10] 	48533
scalar tree_4_3_u10_r6_network.node[10].content_store 	decision_no[10] 	0
scalar tree_4_3_u10_r6_network.node[10].content_store 	decision_ratio[10] 	1
scalar tree_4_3_u10_r6_network.node[11].core_layer 	interests[11] 	33835
scalar tree_4_3_u10_r6_network.node[11].core_layer 	data[11] 	31268
scalar tree_4_3_u10_r6_network.node[11].content_store 	p_hit[11] 	0.075838628638983
scalar tree_4_3_u10_r6_network.node[11].content_store 	hits[11] 	2566
scalar tree_4_3_u10_r6_network.node[11].content_store 	misses[11] 	31269
scalar tree_4_3_u10_r6_network.node[11].content_store 	decision_yes[11] 	31266
scalar tree_4_3_u10_r6_network.node[11].content_store 	decision_no[11] 	0
scalar tree_4_3_u10_r6_network.node[11].content_store 	decision_ratio[11] 	1
scalar tree_4_3_u10_r6_network.node[12].core_layer 	interests[12] 	14551
scalar tree_4_3_u10_r6_network.node[12].core_layer 	data[12] 	11305
scalar tree_4_3_u10_r6_network.node[12].content_store 	p_hit[12] 	0.22300872792248
scalar tree_4_3_u10_r6_network.node[12].content_store 	hits[12] 	3245
scalar tree_4_3_u10_r6_network.node[12].content_store 	misses[12] 	11306
scalar tree_4_3_u10_r6_network.node[12].content_store 	decision_yes[12] 	11304
scalar tree_4_3_u10_r6_network.node[12].content_store 	decision_no[12] 	0
scalar tree_4_3_u10_r6_network.node[12].content_store 	decision_ratio[12] 	1
scalar tree_4_3_u10_r6_network.node[13].core_layer 	interests[13] 	12981
scalar tree_4_3_u10_r6_network.node[13].core_layer 	data[13] 	10034
scalar tree_4_3_u10_r6_network.node[13].content_store 	p_hit[13] 	0.22702411216393
scalar tree_4_3_u10_r6_network.node[13].content_store 	hits[13] 	2947
scalar tree_4_3_u10_r6_network.node[13].content_store 	misses[13] 	10034
scalar tree_4_3_u10_r6_network.node[13].content_store 	decision_yes[13] 	10034
scalar tree_4_3_u10_r6_network.node[13].content_store 	decision_no[13] 	0
scalar tree_4_3_u10_r6_network.node[13].content_store 	decision_ratio[13] 	1
scalar tree_4_3_u10_r6_network.node[14].core_layer 	interests[14] 	14178
scalar tree_4_3_u10_r6_network.node[14].core_layer 	data[14] 	10044
scalar tree_4_3_u10_r6_network.node[14].content_store 	p_hit[14] 	0.29157850190436
scalar tree_4_3_u10_r6_network.node[14].content_store 	hits[14] 	4134
scalar tree_4_3_u10_r6_network.node[14].content_store 	misses[14] 	10044
scalar tree_4_3_u10_r6_network.node[14].content_store 	decision_yes[14] 	10044
scalar tree_4_3_u10_r6_network.node[14].content_store 	decision_no[14] 	0
scalar tree_4_3_u10_r6_network.node[14].content_store 	decision_ratio[14] 	1
scalar tree_4_3_u10_r6_network.node[15].core_layer 	interests[15] 	13915
scalar tree_4_3_u10_r6_network.node[15].core_layer 	data[15] 	9992
scalar tree_4_3_u10_r6_network.node[15].content_store 	p_hit[15] 	0.28192597915918
scalar tree_4_3_u10_r6_network.node[15].content_store 	hits[15] 	3923
scalar tree_4_3_u10_r6_network.node[15].content_store 	misses[15] 	9992
scalar tree_4_3_u10_r6_network.node[15].content_store 	decision_yes[15] 	9992
scalar tree_4_3_u10_r6_network.node[15].content_store 	decision_no[15] 	0
scalar tree_4_3_u10_r6_network.node[15].content_store 	decision_ratio[15] 	1
scalar tree_4_3_u10_r6_network.node[16].core_layer 	interests[16] 	14117
scalar tree_4_3_u10_r6_network.node[16].core_layer 	data[16] 	10094
scalar tree_4_3_u10_r6_network.node[16].content_store 	p_hit[16] 	0.28490472479989
scalar tree_4_3_u10_r6_network.node[16].content_store 	hits[16] 	4022
scalar tree_4_3_u10_r6_network.node[16].content_store 	misses[16] 	10095
scalar tree_4_3_u10_r6_network.node[16].content_store 	decision_yes[16] 	10094
scalar tree_4_3_u10_r6_network.node[16].content_store 	decision_no[16] 	0
scalar tree_4_3_u10_r6_network.node[16].content_store 	decision_ratio[16] 	1
scalar tree_4_3_u10_r6_network.node[17].core_layer 	interests[17] 	13311
scalar tree_4_3_u10_r6_network.node[17].core_layer 	data[17] 	10128
scalar tree_4_3_u10_r6_network.node[17].content_store 	p_hit[17] 	0.2390504094358
scalar tree_4_3_u10_r6_network.node[17].content_store 	hits[17] 	3182
scalar tree_4_3_u10_r6_network.node[17].content_store 	misses[17] 	10129
scalar tree_4_3_u10_r6_network.node[17].content_store 	decision_yes[17] 	10128
scalar tree_4_3_u10_r6_network.node[17].content_store 	decision_no[17] 	0
scalar tree_4_3_u10_r6_network.node[17].content_store 	decision_ratio[17] 	1
scalar tree_4_3_u10_r6_network.node[18].core_layer 	interests[18] 	14146
scalar tree_4_3_u10_r6_network.node[18].core_layer 	data[18] 	10125
scalar tree_4_3_u10_r6_network.node[18].content_store 	p_hit[18] 	0.28424996465432
scalar tree_4_3_u10_r6_network.node[18].content_store 	hits[18] 	4021
scalar tree_4_3_u10_r6_network.node[18].content_store 	misses[18] 	10125
scalar tree_4_3_u10_r6_network.node[18].content_store 	decision_yes[18] 	10125
scalar tree_4_3_u10_r6_network.node[18].content_store 	decision_no[18] 	0
scalar tree_4_3_u10_r6_network.node[18].content_store 	decision_ratio[18] 	1
scalar tree_4_3_u10_r6_network.node[19].core_layer 	interests[19] 	14091
scalar tree_4_3_u10_r6_network.node[19].core_layer 	data[19] 	10068
scalar tree_4_3_u10_r6_network.node[19].content_store 	p_hit[19] 	0.28528848200979
scalar tree_4_3_u10_r6_network.node[19].content_store 	hits[19] 	4020
scalar tree_4_3_u10_r6_network.node[19].content_store 	misses[19] 	10071
scalar tree_4_3_u10_r6_network.node[19].content_store 	decision_yes[19] 	10068
scalar tree_4_3_u10_r6_network.node[19].content_store 	decision_no[19] 	0
scalar tree_4_3_u10_r6_network.node[19].content_store 	decision_ratio[19] 	1
scalar tree_4_3_u10_r6_network.node[20].core_layer 	interests[20] 	13867
scalar tree_4_3_u10_r6_network.node[20].core_layer 	data[20] 	9941
scalar tree_4_3_u10_r6_network.node[20].content_store 	p_hit[20] 	0.28311819427418
scalar tree_4_3_u10_r6_network.node[20].content_store 	hits[20] 	3926
scalar tree_4_3_u10_r6_network.node[20].content_store 	misses[20] 	9941
scalar tree_4_3_u10_r6_network.node[20].content_store 	decision_yes[20] 	9941
scalar tree_4_3_u10_r6_network.node[20].content_store 	decision_no[20] 	0
scalar tree_4_3_u10_r6_network.node[20].content_store 	decision_ratio[20] 	1
scalar tree_4_3_u10_r6_network.node[21].core_layer 	interests[21] 	12635
scalar tree_4_3_u10_r6_network.node[21].core_layer 	data[21] 	10166
scalar tree_4_3_u10_r6_network.node[21].content_store 	p_hit[21] 	0.19533043134151
scalar tree_4_3_u10_r6_network.node[21].content_store 	hits[21] 	2468
scalar tree_4_3_u10_r6_network.node[21].content_store 	misses[21] 	10167
scalar tree_4_3_u10_r6_network.node[21].content_store 	decision_yes[21] 	10166
scalar tree_4_3_u10_r6_network.node[21].content_store 	decision_no[21] 	0
scalar tree_4_3_u10_r6_network.node[21].content_store 	decision_ratio[21] 	1
scalar tree_4_3_u10_r6_network.node[22].core_layer 	interests[22] 	13394
scalar tree_4_3_u10_r6_network.node[22].core_layer 	data[22] 	10138
scalar tree_4_3_u10_r6_network.node[22].content_store 	p_hit[22] 	0.24301926235628
scalar tree_4_3_u10_r6_network.node[22].content_store 	hits[22] 	3255
scalar tree_4_3_u10_r6_network.node[22].content_store 	misses[22] 	10139
scalar tree_4_3_u10_r6_network.node[22].content_store 	decision_yes[22] 	10138
scalar tree_4_3_u10_r6_network.node[22].content_store 	decision_no[22] 	0
scalar tree_4_3_u10_r6_network.node[22].content_store 	decision_ratio[22] 	1
scalar tree_4_3_u10_r6_network.node[23].core_layer 	interests[23] 	14266
scalar tree_4_3_u10_r6_network.node[23].core_layer 	data[23] 	10068
scalar tree_4_3_u10_r6_network.node[23].content_store 	p_hit[23] 	0.29419599046684
scalar tree_4_3_u10_r6_network.node[23].content_store 	hits[23] 	4197
scalar tree_4_3_u10_r6_network.node[23].content_store 	misses[23] 	10069
scalar tree_4_3_u10_r6_network.node[23].content_store 	decision_yes[23] 	10068
scalar tree_4_3_u10_r6_network.node[23].content_store 	decision_no[23] 	0
scalar tree_4_3_u10_r6_network.node[23].content_store 	decision_ratio[23] 	1
scalar tree_4_3_u10_r6_network.node[24].core_layer 	interests[24] 	14027
scalar tree_4_3_u10_r6_network.node[24].core_layer 	data[24] 	10073
scalar tree_4_3_u10_r6_network.node[24].content_store 	p_hit[24] 	0.28188493619448
scalar tree_4_3_u10_r6_network.node[24].content_store 	hits[24] 	3954
scalar tree_4_3_u10_r6_network.node[24].content_store 	misses[24] 	10073
scalar tree_4_3_u10_r6_network.node[24].content_store 	decision_yes[24] 	10073
scalar tree_4_3_u10_r6_network.node[24].content_store 	decision_no[24] 	0
scalar tree_4_3_u10_r6_network.node[24].content_store 	decision_ratio[24] 	1
scalar tree_4_3_u10_r6_network.node[25].core_layer 	interests[25] 	14245
scalar tree_4_3_u10_r6_network.node[25].core_layer 	data[25] 	10142
scalar tree_4_3_u10_r6_network.node[25].content_store 	p_hit[25] 	0.28810108810109
scalar tree_4_3_u10_r6_network.node[25].content_store 	hits[25] 	4104
scalar tree_4_3_u10_r6_network.node[25].content_store 	misses[25] 	10141
scalar tree_4_3_u10_r6_network.node[25].content_store 	decision_yes[25] 	10142
scalar tree_4_3_u10_r6_network.node[25].content_store 	decision_no[25] 	0
scalar tree_4_3_u10_r6_network.node[25].content_store 	decision_ratio[25] 	1
scalar tree_4_3_u10_r6_network.node[26].core_layer 	interests[26] 	12882
scalar tree_4_3_u10_r6_network.node[26].core_layer 	data[26] 	9975
scalar tree_4_3_u10_r6_network.node[26].content_store 	p_hit[26] 	0.22566371681416
scalar tree_4_3_u10_r6_network.node[26].content_store 	hits[26] 	2907
scalar tree_4_3_u10_r6_network.node[26].content_store 	misses[26] 	9975
scalar tree_4_3_u10_r6_network.node[26].content_store 	decision_yes[26] 	9975
scalar tree_4_3_u10_r6_network.node[26].content_store 	decision_no[26] 	0
scalar tree_4_3_u10_r6_network.node[26].content_store 	decision_ratio[26] 	1
scalar tree_4_3_u10_r6_network.node[27].core_layer 	interests[27] 	13805
scalar tree_4_3_u10_r6_network.node[27].core_layer 	data[27] 	10031
scalar tree_4_3_u10_r6_network.node[27].content_store 	p_hit[27] 	0.273379210431
scalar tree_4_3_u10_r6_network.node[27].content_store 	hits[27] 	3774
scalar tree_4_3_u10_r6_network.node[27].content_store 	misses[27] 	10031
scalar tree_4_3_u10_r6_network.node[27].content_store 	decision_yes[27] 	10031
scalar tree_4_3_u10_r6_network.node[27].content_store 	decision_no[27] 	0
scalar tree_4_3_u10_r6_network.node[27].content_store 	decision_ratio[27] 	1
scalar tree_4_3_u10_r6_network.node[28].core_layer 	interests[28] 	14094
scalar tree_4_3_u10_r6_network.node[28].core_layer 	data[28] 	10046
scalar tree_4_3_u10_r6_network.node[28].content_store 	p_hit[28] 	0.28721441748262
scalar tree_4_3_u10_r6_network.node[28].content_store 	hits[28] 	4048
scalar tree_4_3_u10_r6_network.node[28].content_store 	misses[28] 	10046
scalar tree_4_3_u10_r6_network.node[28].content_store 	decision_yes[28] 	10046
scalar tree_4_3_u10_r6_network.node[28].content_store 	decision_no[28] 	0
scalar tree_4_3_u10_r6_network.node[28].content_store 	decision_ratio[28] 	1
scalar tree_4_3_u10_r6_network.node[29].core_layer 	interests[29] 	13793
scalar tree_4_3_u10_r6_network.node[29].core_layer 	data[29] 	9962
scalar tree_4_3_u10_r6_network.node[29].content_store 	p_hit[29] 	0.27767708257812
scalar tree_4_3_u10_r6_network.node[29].content_store 	hits[29] 	3830
scalar tree_4_3_u10_r6_network.node[29].content_store 	misses[29] 	9963
scalar tree_4_3_u10_r6_network.node[29].content_store 	decision_yes[29] 	9962
scalar tree_4_3_u10_r6_network.node[29].content_store 	decision_no[29] 	0
scalar tree_4_3_u10_r6_network.node[29].content_store 	decision_ratio[29] 	1
scalar tree_4_3_u10_r6_network.node[30].core_layer 	interests[30] 	12581
scalar tree_4_3_u10_r6_network.node[30].core_layer 	data[30] 	10152
scalar tree_4_3_u10_r6_network.node[30].content_store 	p_hit[30] 	0.19314839837851
scalar tree_4_3_u10_r6_network.node[30].content_store 	hits[30] 	2430
scalar tree_4_3_u10_r6_network.node[30].content_store 	misses[30] 	10151
scalar tree_4_3_u10_r6_network.node[30].content_store 	decision_yes[30] 	10152
scalar tree_4_3_u10_r6_network.node[30].content_store 	decision_no[30] 	0
scalar tree_4_3_u10_r6_network.node[30].content_store 	decision_ratio[30] 	1
scalar tree_4_3_u10_r6_network.node[31].core_layer 	interests[31] 	13171
scalar tree_4_3_u10_r6_network.node[31].core_layer 	data[31] 	9854
scalar tree_4_3_u10_r6_network.node[31].content_store 	p_hit[31] 	0.25184116619847
scalar tree_4_3_u10_r6_network.node[31].content_store 	hits[31] 	3317
scalar tree_4_3_u10_r6_network.node[31].content_store 	misses[31] 	9854
scalar tree_4_3_u10_r6_network.node[31].content_store 	decision_yes[31] 	9854
scalar tree_4_3_u10_r6_network.node[31].content_store 	decision_no[31] 	0
scalar tree_4_3_u10_r6_network.node[31].content_store 	decision_ratio[31] 	1
scalar tree_4_3_u10_r6_network.node[32].core_layer 	interests[32] 	14260
scalar tree_4_3_u10_r6_network.node[32].core_layer 	data[32] 	10006
scalar tree_4_3_u10_r6_network.node[32].content_store 	p_hit[32] 	0.29824684431978
scalar tree_4_3_u10_r6_network.node[32].content_store 	hits[32] 	4253
scalar tree_4_3_u10_r6_network.node[32].content_store 	misses[32] 	10007
scalar tree_4_3_u10_r6_network.node[32].content_store 	decision_yes[32] 	10006
scalar tree_4_3_u10_r6_network.node[32].content_store 	decision_no[32] 	0
scalar tree_4_3_u10_r6_network.node[32].content_store 	decision_ratio[32] 	1
scalar tree_4_3_u10_r6_network.node[33].core_layer 	interests[33] 	14026
scalar tree_4_3_u10_r6_network.node[33].core_layer 	data[33] 	10185
scalar tree_4_3_u10_r6_network.node[33].content_store 	p_hit[33] 	0.27391986311136
scalar tree_4_3_u10_r6_network.node[33].content_store 	hits[33] 	3842
scalar tree_4_3_u10_r6_network.node[33].content_store 	misses[33] 	10184
scalar tree_4_3_u10_r6_network.node[33].content_store 	decision_yes[33] 	10185
scalar tree_4_3_u10_r6_network.node[33].content_store 	decision_no[33] 	0
scalar tree_4_3_u10_r6_network.node[33].content_store 	decision_ratio[33] 	1
scalar tree_4_3_u10_r6_network.node[34].core_layer 	interests[34] 	13935
scalar tree_4_3_u10_r6_network.node[34].core_layer 	data[34] 	9823
scalar tree_4_3_u10_r6_network.node[34].content_store 	p_hit[34] 	0.2951560818084
scalar tree_4_3_u10_r6_network.node[34].content_store 	hits[34] 	4113
scalar tree_4_3_u10_r6_network.node[34].content_store 	misses[34] 	9822
scalar tree_4_3_u10_r6_network.node[34].content_store 	decision_yes[34] 	9823
scalar tree_4_3_u10_r6_network.node[34].content_store 	decision_no[34] 	0
scalar tree_4_3_u10_r6_network.node[34].content_store 	decision_ratio[34] 	1
scalar tree_4_3_u10_r6_network.node[35].core_layer 	interests[35] 	13310
scalar tree_4_3_u10_r6_network.node[35].core_layer 	data[35] 	10296
scalar tree_4_3_u10_r6_network.node[35].content_store 	p_hit[35] 	0.22644628099174
scalar tree_4_3_u10_r6_network.node[35].content_store 	hits[35] 	3014
scalar tree_4_3_u10_r6_network.node[35].content_store 	misses[35] 	10296
scalar tree_4_3_u10_r6_network.node[35].content_store 	decision_yes[35] 	10296
scalar tree_4_3_u10_r6_network.node[35].content_store 	decision_no[35] 	0
scalar tree_4_3_u10_r6_network.node[35].content_store 	decision_ratio[35] 	1
scalar tree_4_3_u10_r6_network.node[36].core_layer 	interests[36] 	13631
scalar tree_4_3_u10_r6_network.node[36].core_layer 	data[36] 	9894
scalar tree_4_3_u10_r6_network.node[36].content_store 	p_hit[36] 	0.27408113858118
scalar tree_4_3_u10_r6_network.node[36].content_store 	hits[36] 	3736
scalar tree_4_3_u10_r6_network.node[36].content_store 	misses[36] 	9895
scalar tree_4_3_u10_r6_network.node[36].content_store 	decision_yes[36] 	9894
scalar tree_4_3_u10_r6_network.node[36].content_store 	decision_no[36] 	0
scalar tree_4_3_u10_r6_network.node[36].content_store 	decision_ratio[36] 	1
scalar tree_4_3_u10_r6_network.node[37].core_layer 	interests[37] 	14053
scalar tree_4_3_u10_r6_network.node[37].core_layer 	data[37] 	10157
scalar tree_4_3_u10_r6_network.node[37].content_store 	p_hit[37] 	0.2770938589625
scalar tree_4_3_u10_r6_network.node[37].content_store 	hits[37] 	3894
scalar tree_4_3_u10_r6_network.node[37].content_store 	misses[37] 	10159
scalar tree_4_3_u10_r6_network.node[37].content_store 	decision_yes[37] 	10157
scalar tree_4_3_u10_r6_network.node[37].content_store 	decision_no[37] 	0
scalar tree_4_3_u10_r6_network.node[37].content_store 	decision_ratio[37] 	1
scalar tree_4_3_u10_r6_network.node[38].core_layer 	interests[38] 	13929
scalar tree_4_3_u10_r6_network.node[38].core_layer 	data[38] 	10103
scalar tree_4_3_u10_r6_network.node[38].content_store 	p_hit[38] 	0.27467872783402
scalar tree_4_3_u10_r6_network.node[38].content_store 	hits[38] 	3826
scalar tree_4_3_u10_r6_network.node[38].content_store 	misses[38] 	10103
scalar tree_4_3_u10_r6_network.node[38].content_store 	decision_yes[38] 	10103
scalar tree_4_3_u10_r6_network.node[38].content_store 	decision_no[38] 	0
scalar tree_4_3_u10_r6_network.node[38].content_store 	decision_ratio[38] 	1
scalar tree_4_3_u10_r6_network.node[39].core_layer 	interests[39] 	12186
scalar tree_4_3_u10_r6_network.node[39].core_layer 	data[39] 	10067
scalar tree_4_3_u10_r6_network.node[39].content_store 	p_hit[39] 	0.17388806827507
scalar tree_4_3_u10_r6_network.node[39].content_store 	hits[39] 	2119
scalar tree_4_3_u10_r6_network.node[39].content_store 	misses[39] 	10067
scalar tree_4_3_u10_r6_network.node[39].content_store 	decision_yes[39] 	10067
scalar tree_4_3_u10_r6_network.node[39].content_store 	decision_no[39] 	0
scalar tree_4_3_u10_r6_network.node[39].content_store 	decision_ratio[39] 	1
scalar tree_4_3_u10_r6_network.client[13] 	hdistance[13] 	3.0750984829436
scalar tree_4_3_u10_r6_network.client[13] 	downloads[13] 	11931
scalar tree_4_3_u10_r6_network.client[13] 	avg_time[13] 	0.004907511915
scalar tree_4_3_u10_r6_network.client[14] 	hdistance[14] 	2.9619406106232
scalar tree_4_3_u10_r6_network.client[14] 	downloads[14] 	11955
scalar tree_4_3_u10_r6_network.client[14] 	avg_time[14] 	0.004736501921
scalar tree_4_3_u10_r6_network.client[15] 	hdistance[15] 	2.9223863064273
scalar tree_4_3_u10_r6_network.client[15] 	downloads[15] 	11918
scalar tree_4_3_u10_r6_network.client[15] 	avg_time[15] 	0.004664288805
scalar tree_4_3_u10_r6_network.client[16] 	hdistance[16] 	2.9785547396529
scalar tree_4_3_u10_r6_network.client[16] 	downloads[16] 	11984
scalar tree_4_3_u10_r6_network.client[16] 	avg_time[16] 	0.00475069802
scalar tree_4_3_u10_r6_network.client[17] 	hdistance[17] 	3.0288215376992
scalar tree_4_3_u10_r6_network.client[17] 	downloads[17] 	12109
scalar tree_4_3_u10_r6_network.client[17] 	avg_time[17] 	0.004851653015
scalar tree_4_3_u10_r6_network.client[18] 	hdistance[18] 	2.8880860497578
scalar tree_4_3_u10_r6_network.client[18] 	downloads[18] 	12179
scalar tree_4_3_u10_r6_network.client[18] 	avg_time[18] 	0.00459756927
scalar tree_4_3_u10_r6_network.client[19] 	hdistance[19] 	2.9271848704491
scalar tree_4_3_u10_r6_network.client[19] 	downloads[19] 	12003
scalar tree_4_3_u10_r6_network.client[19] 	avg_time[19] 	0.004673145004
scalar tree_4_3_u10_r6_network.client[20] 	hdistance[20] 	2.9207496428271
scalar tree_4_3_u10_r6_network.client[20] 	downloads[20] 	11899
scalar tree_4_3_u10_r6_network.client[20] 	avg_time[20] 	0.004642881726
scalar tree_4_3_u10_r6_network.client[21] 	hdistance[21] 	3.0108650576429
scalar tree_4_3_u10_r6_network.client[21] 	downloads[21] 	12057
scalar tree_4_3_u10_r6_network.client[21] 	avg_time[21] 	0.004824115973
scalar tree_4_3_u10_r6_network.client[22] 	hdistance[22] 	3.0389318692289
scalar tree_4_3_u10_r6_network.client[22] 	downloads[22] 	12021
scalar tree_4_3_u10_r6_network.client[22] 	avg_time[22] 	0.00489449603
scalar tree_4_3_u10_r6_network.client[23] 	hdistance[23] 	2.9394991321597
scalar tree_4_3_u10_r6_network.client[23] 	downloads[23] 	12099
scalar tree_4_3_u10_r6_network.client[23] 	avg_time[23] 	0.00469350283
scalar tree_4_3_u10_r6_network.client[24] 	hdistance[24] 	2.9589527027027
scalar tree_4_3_u10_r6_network.client[24] 	downloads[24] 	11840
scalar tree_4_3_u10_r6_network.client[24] 	avg_time[24] 	0.004721449752
scalar tree_4_3_u10_r6_network.client[25] 	hdistance[25] 	2.9698700438705
scalar tree_4_3_u10_r6_network.client[25] 	downloads[25] 	12081
scalar tree_4_3_u10_r6_network.client[25] 	avg_time[25] 	0.004740146654
scalar tree_4_3_u10_r6_network.client[26] 	hdistance[26] 	3.0395111334338
scalar tree_4_3_u10_r6_network.client[26] 	downloads[26] 	11946
scalar tree_4_3_u10_r6_network.client[26] 	avg_time[26] 	0.004846396793
scalar tree_4_3_u10_r6_network.client[27] 	hdistance[27] 	2.9475140437663
scalar tree_4_3_u10_r6_network.client[27] 	downloads[27] 	11927
scalar tree_4_3_u10_r6_network.client[27] 	avg_time[27] 	0.004703890011
scalar tree_4_3_u10_r6_network.client[28] 	hdistance[28] 	2.9154540893126
scalar tree_4_3_u10_r6_network.client[28] 	downloads[28] 	11958
scalar tree_4_3_u10_r6_network.client[28] 	avg_time[28] 	0.004655457779
scalar tree_4_3_u10_r6_network.client[29] 	hdistance[29] 	2.9263906315349
scalar tree_4_3_u10_r6_network.client[29] 	downloads[29] 	11955
scalar tree_4_3_u10_r6_network.client[29] 	avg_time[29] 	0.004664620285
scalar tree_4_3_u10_r6_network.client[30] 	hdistance[30] 	3.0159087123105
scalar tree_4_3_u10_r6_network.client[30] 	downloads[30] 	12006
scalar tree_4_3_u10_r6_network.client[30] 	avg_time[30] 	0.004838577716
scalar tree_4_3_u10_r6_network.client[31] 	hdistance[31] 	2.987895716946
scalar tree_4_3_u10_r6_network.client[31] 	downloads[31] 	11814
scalar tree_4_3_u10_r6_network.client[31] 	avg_time[31] 	0.004801588381
scalar tree_4_3_u10_r6_network.client[32] 	hdistance[32] 	2.9433425391246
scalar tree_4_3_u10_r6_network.client[32] 	downloads[32] 	11949
scalar tree_4_3_u10_r6_network.client[32] 	avg_time[32] 	0.004698120775
scalar tree_4_3_u10_r6_network.client[33] 	hdistance[33] 	2.9547980426308
scalar tree_4_3_u10_r6_network.client[33] 	downloads[33] 	12057
scalar tree_4_3_u10_r6_network.client[33] 	avg_time[33] 	0.004713187197
scalar tree_4_3_u10_r6_network.client[34] 	hdistance[34] 	2.9411764705882
scalar tree_4_3_u10_r6_network.client[34] 	downloads[34] 	11713
scalar tree_4_3_u10_r6_network.client[34] 	avg_time[34] 	0.004698998142
scalar tree_4_3_u10_r6_network.client[35] 	hdistance[35] 	3.0229658792651
scalar tree_4_3_u10_r6_network.client[35] 	downloads[35] 	12192
scalar tree_4_3_u10_r6_network.client[35] 	avg_time[35] 	0.004857170662
scalar tree_4_3_u10_r6_network.client[36] 	hdistance[36] 	2.9496225935035
scalar tree_4_3_u10_r6_network.client[36] 	downloads[36] 	11791
scalar tree_4_3_u10_r6_network.client[36] 	avg_time[36] 	0.004702694819
scalar tree_4_3_u10_r6_network.client[37] 	hdistance[37] 	2.9340650272322
scalar tree_4_3_u10_r6_network.client[37] 	downloads[37] 	12118
scalar tree_4_3_u10_r6_network.client[37] 	avg_time[37] 	0.004666994943
scalar tree_4_3_u10_r6_network.client[38] 	hdistance[38] 	2.9372048711788
scalar tree_4_3_u10_r6_network.client[38] 	downloads[38] 	12071
scalar tree_4_3_u10_r6_network.client[38] 	avg_time[38] 	0.004678623126
scalar tree_4_3_u10_r6_network.client[39] 	hdistance[39] 	3.0583004781478
scalar tree_4_3_u10_r6_network.client[39] 	downloads[39] 	11921
scalar tree_4_3_u10_r6_network.client[39] 	avg_time[39] 	0.004874420294
