version 2
run General-218-20160819-18:32:28-23511
attr a 0.9
attr cd lce
attr configname General
attr cr lru
attr datetime 20160819-18:32:28
attr experiment General
attr fsize 1
attr inifile hw5115/scenario_A/NRR-LCE.ini
attr iterationvars "$name=tree_4_3, $un=10, $rep=19, $cd=lce, $cr=lru, $fsize=1, $a=0.9, $sl=nrr, $ttl=1000, $variance=0.05"
attr iterationvars2 "$name=tree_4_3, $un=10, $rep=19, $cd=lce, $cr=lru, $fsize=1, $a=0.9, $sl=nrr, $ttl=1000, $variance=0.05, $repetition=0"
attr measurement "$name=tree_4_3, $un=10, $rep=19, $cd=lce, $cr=lru, $fsize=1, $a=0.9, $sl=nrr, $ttl=1000, $variance=0.05"
attr name tree_4_3
attr network networks.${name}_u${un}_r${rep}_network
attr processid 23511
attr rep 19
attr repetition 0
attr replication #0
attr resultdir results
attr runnumber 218
attr seedset 19
attr sl nrr
attr ttl 1000
attr un 10
attr variance 0.05

scalar . 	a 	0.9
scalar . 	fsize 	1
scalar . 	rep 	19
scalar . 	ttl 	1000
scalar . 	un 	10
scalar . 	variance 	0.05
scalar tree_4_3_u10_r19_network.content_distribution 	repo-0 	0
scalar tree_4_3_u10_r19_network.content_distribution 	client-0 	13
scalar tree_4_3_u10_r19_network.content_distribution 	client-1 	14
scalar tree_4_3_u10_r19_network.content_distribution 	client-2 	15
scalar tree_4_3_u10_r19_network.content_distribution 	client-3 	16
scalar tree_4_3_u10_r19_network.content_distribution 	client-4 	17
scalar tree_4_3_u10_r19_network.content_distribution 	client-5 	18
scalar tree_4_3_u10_r19_network.content_distribution 	client-6 	19
scalar tree_4_3_u10_r19_network.content_distribution 	client-7 	20
scalar tree_4_3_u10_r19_network.content_distribution 	client-8 	21
scalar tree_4_3_u10_r19_network.content_distribution 	client-9 	22
scalar tree_4_3_u10_r19_network.content_distribution 	client-10 	23
scalar tree_4_3_u10_r19_network.content_distribution 	client-11 	24
scalar tree_4_3_u10_r19_network.content_distribution 	client-12 	25
scalar tree_4_3_u10_r19_network.content_distribution 	client-13 	26
scalar tree_4_3_u10_r19_network.content_distribution 	client-14 	27
scalar tree_4_3_u10_r19_network.content_distribution 	client-15 	28
scalar tree_4_3_u10_r19_network.content_distribution 	client-16 	29
scalar tree_4_3_u10_r19_network.content_distribution 	client-17 	30
scalar tree_4_3_u10_r19_network.content_distribution 	client-18 	31
scalar tree_4_3_u10_r19_network.content_distribution 	client-19 	32
scalar tree_4_3_u10_r19_network.content_distribution 	client-20 	33
scalar tree_4_3_u10_r19_network.content_distribution 	client-21 	34
scalar tree_4_3_u10_r19_network.content_distribution 	client-22 	35
scalar tree_4_3_u10_r19_network.content_distribution 	client-23 	36
scalar tree_4_3_u10_r19_network.content_distribution 	client-24 	37
scalar tree_4_3_u10_r19_network.content_distribution 	client-25 	38
scalar tree_4_3_u10_r19_network.content_distribution 	client-26 	39
scalar tree_4_3_u10_r19_network.content_distribution 	repo-0_card 	100000
scalar tree_4_3_u10_r19_network.content_distribution 	repo-0_price 	0
scalar tree_4_3_u10_r19_network.statistics 	stabilization_time 	410.4
scalar tree_4_3_u10_r19_network.statistics 	p_hit 	0.20898671897937
scalar tree_4_3_u10_r19_network.statistics 	interests 	27256.575
scalar tree_4_3_u10_r19_network.statistics 	data 	19175.65
scalar tree_4_3_u10_r19_network.statistics 	hdistance 	2.9728036595274
scalar tree_4_3_u10_r19_network.statistics 	avg_time 	0.00474606031
scalar tree_4_3_u10_r19_network.statistics 	downloads 	323225
scalar tree_4_3_u10_r19_network.statistics 	total_cost 	0
scalar tree_4_3_u10_r19_network.statistics 	total_replicas 	100000
scalar tree_4_3_u10_r19_network.statistics 	inner_hit 	0.40023513032717
scalar tree_4_3_u10_r19_network.node[0].core_layer 	interests[0] 	194186
scalar tree_4_3_u10_r19_network.node[0].core_layer 	repo_load[0] 	193859
scalar tree_4_3_u10_r19_network.node[0].core_layer 	data[0] 	0
scalar tree_4_3_u10_r19_network.node[0].core_layer 	repo_int[0] 	193859
scalar tree_4_3_u10_r19_network.node[0].content_store 	p_hit[0] 	0.0016839524991503
scalar tree_4_3_u10_r19_network.node[0].content_store 	hits[0] 	327
scalar tree_4_3_u10_r19_network.node[0].content_store 	misses[0] 	193859
scalar tree_4_3_u10_r19_network.node[0].content_store 	decision_yes[0] 	193859
scalar tree_4_3_u10_r19_network.node[0].content_store 	decision_no[0] 	0
scalar tree_4_3_u10_r19_network.node[0].content_store 	decision_ratio[0] 	1
scalar tree_4_3_u10_r19_network.node[1].core_layer 	interests[1] 	150933
scalar tree_4_3_u10_r19_network.node[1].core_layer 	data[1] 	149738
scalar tree_4_3_u10_r19_network.node[1].content_store 	p_hit[1] 	0.0078909184870108
scalar tree_4_3_u10_r19_network.node[1].content_store 	hits[1] 	1191
scalar tree_4_3_u10_r19_network.node[1].content_store 	misses[1] 	149742
scalar tree_4_3_u10_r19_network.node[1].content_store 	decision_yes[1] 	149724
scalar tree_4_3_u10_r19_network.node[1].content_store 	decision_no[1] 	0
scalar tree_4_3_u10_r19_network.node[1].content_store 	decision_ratio[1] 	1
scalar tree_4_3_u10_r19_network.node[2].core_layer 	interests[2] 	60436
scalar tree_4_3_u10_r19_network.node[2].core_layer 	data[2] 	59051
scalar tree_4_3_u10_r19_network.node[2].content_store 	p_hit[2] 	0.022900258124297
scalar tree_4_3_u10_r19_network.node[2].content_store 	hits[2] 	1384
scalar tree_4_3_u10_r19_network.node[2].content_store 	misses[2] 	59052
scalar tree_4_3_u10_r19_network.node[2].content_store 	decision_yes[2] 	59047
scalar tree_4_3_u10_r19_network.node[2].content_store 	decision_no[2] 	0
scalar tree_4_3_u10_r19_network.node[2].content_store 	decision_ratio[2] 	1
scalar tree_4_3_u10_r19_network.node[3].core_layer 	interests[3] 	16901
scalar tree_4_3_u10_r19_network.node[3].core_layer 	data[3] 	13691
scalar tree_4_3_u10_r19_network.node[3].content_store 	p_hit[3] 	0.18987042186853
scalar tree_4_3_u10_r19_network.node[3].content_store 	hits[3] 	3209
scalar tree_4_3_u10_r19_network.node[3].content_store 	misses[3] 	13692
scalar tree_4_3_u10_r19_network.node[3].content_store 	decision_yes[3] 	13690
scalar tree_4_3_u10_r19_network.node[3].content_store 	decision_no[3] 	0
scalar tree_4_3_u10_r19_network.node[3].content_store 	decision_ratio[3] 	1
scalar tree_4_3_u10_r19_network.node[4].core_layer 	interests[4] 	47274
scalar tree_4_3_u10_r19_network.node[4].core_layer 	data[4] 	45540
scalar tree_4_3_u10_r19_network.node[4].content_store 	p_hit[4] 	0.036679781698185
scalar tree_4_3_u10_r19_network.node[4].content_store 	hits[4] 	1734
scalar tree_4_3_u10_r19_network.node[4].content_store 	misses[4] 	45540
scalar tree_4_3_u10_r19_network.node[4].content_store 	decision_yes[4] 	45538
scalar tree_4_3_u10_r19_network.node[4].content_store 	decision_no[4] 	0
scalar tree_4_3_u10_r19_network.node[4].content_store 	decision_ratio[4] 	1
scalar tree_4_3_u10_r19_network.node[5].core_layer 	interests[5] 	34365
scalar tree_4_3_u10_r19_network.node[5].core_layer 	data[5] 	31453
scalar tree_4_3_u10_r19_network.node[5].content_store 	p_hit[5] 	0.084679179397643
scalar tree_4_3_u10_r19_network.node[5].content_store 	hits[5] 	2910
scalar tree_4_3_u10_r19_network.node[5].content_store 	misses[5] 	31455
scalar tree_4_3_u10_r19_network.node[5].content_store 	decision_yes[5] 	31450
scalar tree_4_3_u10_r19_network.node[5].content_store 	decision_no[5] 	0
scalar tree_4_3_u10_r19_network.node[5].content_store 	decision_ratio[5] 	1
scalar tree_4_3_u10_r19_network.node[6].core_layer 	interests[6] 	18496
scalar tree_4_3_u10_r19_network.node[6].core_layer 	data[6] 	13779
scalar tree_4_3_u10_r19_network.node[6].content_store 	p_hit[6] 	0.25502811418685
scalar tree_4_3_u10_r19_network.node[6].content_store 	hits[6] 	4717
scalar tree_4_3_u10_r19_network.node[6].content_store 	misses[6] 	13779
scalar tree_4_3_u10_r19_network.node[6].content_store 	decision_yes[6] 	13779
scalar tree_4_3_u10_r19_network.node[6].content_store 	decision_no[6] 	0
scalar tree_4_3_u10_r19_network.node[6].content_store 	decision_ratio[6] 	1
scalar tree_4_3_u10_r19_network.node[7].core_layer 	interests[7] 	51249
scalar tree_4_3_u10_r19_network.node[7].core_layer 	data[7] 	48814
scalar tree_4_3_u10_r19_network.node[7].content_store 	p_hit[7] 	0.047493609631407
scalar tree_4_3_u10_r19_network.node[7].content_store 	hits[7] 	2434
scalar tree_4_3_u10_r19_network.node[7].content_store 	misses[7] 	48815
scalar tree_4_3_u10_r19_network.node[7].content_store 	decision_yes[7] 	48809
scalar tree_4_3_u10_r19_network.node[7].content_store 	decision_no[7] 	0
scalar tree_4_3_u10_r19_network.node[7].content_store 	decision_ratio[7] 	1
scalar tree_4_3_u10_r19_network.node[8].core_layer 	interests[8] 	30147
scalar tree_4_3_u10_r19_network.node[8].core_layer 	data[8] 	28267
scalar tree_4_3_u10_r19_network.node[8].content_store 	p_hit[8] 	0.062261584900653
scalar tree_4_3_u10_r19_network.node[8].content_store 	hits[8] 	1877
scalar tree_4_3_u10_r19_network.node[8].content_store 	misses[8] 	28270
scalar tree_4_3_u10_r19_network.node[8].content_store 	decision_yes[8] 	28267
scalar tree_4_3_u10_r19_network.node[8].content_store 	decision_no[8] 	0
scalar tree_4_3_u10_r19_network.node[8].content_store 	decision_ratio[8] 	1
scalar tree_4_3_u10_r19_network.node[9].core_layer 	interests[9] 	18318
scalar tree_4_3_u10_r19_network.node[9].core_layer 	data[9] 	13783
scalar tree_4_3_u10_r19_network.node[9].content_store 	p_hit[9] 	0.24751610437821
scalar tree_4_3_u10_r19_network.node[9].content_store 	hits[9] 	4534
scalar tree_4_3_u10_r19_network.node[9].content_store 	misses[9] 	13784
scalar tree_4_3_u10_r19_network.node[9].content_store 	decision_yes[9] 	13783
scalar tree_4_3_u10_r19_network.node[9].content_store 	decision_no[9] 	0
scalar tree_4_3_u10_r19_network.node[9].content_store 	decision_ratio[9] 	1
scalar tree_4_3_u10_r19_network.node[10].core_layer 	interests[10] 	51464
scalar tree_4_3_u10_r19_network.node[10].core_layer 	data[10] 	49046
scalar tree_4_3_u10_r19_network.node[10].content_store 	p_hit[10] 	0.046906575470232
scalar tree_4_3_u10_r19_network.node[10].content_store 	hits[10] 	2414
scalar tree_4_3_u10_r19_network.node[10].content_store 	misses[10] 	49050
scalar tree_4_3_u10_r19_network.node[10].content_store 	decision_yes[10] 	49039
scalar tree_4_3_u10_r19_network.node[10].content_store 	decision_no[10] 	0
scalar tree_4_3_u10_r19_network.node[10].content_store 	decision_ratio[10] 	1
scalar tree_4_3_u10_r19_network.node[11].core_layer 	interests[11] 	33854
scalar tree_4_3_u10_r19_network.node[11].core_layer 	data[11] 	31188
scalar tree_4_3_u10_r19_network.node[11].content_store 	p_hit[11] 	0.078720387546523
scalar tree_4_3_u10_r19_network.node[11].content_store 	hits[11] 	2665
scalar tree_4_3_u10_r19_network.node[11].content_store 	misses[11] 	31189
scalar tree_4_3_u10_r19_network.node[11].content_store 	decision_yes[11] 	31186
scalar tree_4_3_u10_r19_network.node[11].content_store 	decision_no[11] 	0
scalar tree_4_3_u10_r19_network.node[11].content_store 	decision_ratio[11] 	1
scalar tree_4_3_u10_r19_network.node[12].core_layer 	interests[12] 	14485
scalar tree_4_3_u10_r19_network.node[12].core_layer 	data[12] 	11316
scalar tree_4_3_u10_r19_network.node[12].content_store 	p_hit[12] 	0.21877804625475
scalar tree_4_3_u10_r19_network.node[12].content_store 	hits[12] 	3169
scalar tree_4_3_u10_r19_network.node[12].content_store 	misses[12] 	11316
scalar tree_4_3_u10_r19_network.node[12].content_store 	decision_yes[12] 	11316
scalar tree_4_3_u10_r19_network.node[12].content_store 	decision_no[12] 	0
scalar tree_4_3_u10_r19_network.node[12].content_store 	decision_ratio[12] 	1
scalar tree_4_3_u10_r19_network.node[13].core_layer 	interests[13] 	13123
scalar tree_4_3_u10_r19_network.node[13].core_layer 	data[13] 	10189
scalar tree_4_3_u10_r19_network.node[13].content_store 	p_hit[13] 	0.22357692600777
scalar tree_4_3_u10_r19_network.node[13].content_store 	hits[13] 	2934
scalar tree_4_3_u10_r19_network.node[13].content_store 	misses[13] 	10189
scalar tree_4_3_u10_r19_network.node[13].content_store 	decision_yes[13] 	10189
scalar tree_4_3_u10_r19_network.node[13].content_store 	decision_no[13] 	0
scalar tree_4_3_u10_r19_network.node[13].content_store 	decision_ratio[13] 	1
scalar tree_4_3_u10_r19_network.node[14].core_layer 	interests[14] 	14048
scalar tree_4_3_u10_r19_network.node[14].core_layer 	data[14] 	9998
scalar tree_4_3_u10_r19_network.node[14].content_store 	p_hit[14] 	0.28822608200456
scalar tree_4_3_u10_r19_network.node[14].content_store 	hits[14] 	4049
scalar tree_4_3_u10_r19_network.node[14].content_store 	misses[14] 	9999
scalar tree_4_3_u10_r19_network.node[14].content_store 	decision_yes[14] 	9998
scalar tree_4_3_u10_r19_network.node[14].content_store 	decision_no[14] 	0
scalar tree_4_3_u10_r19_network.node[14].content_store 	decision_ratio[14] 	1
scalar tree_4_3_u10_r19_network.node[15].core_layer 	interests[15] 	13951
scalar tree_4_3_u10_r19_network.node[15].core_layer 	data[15] 	9990
scalar tree_4_3_u10_r19_network.node[15].content_store 	p_hit[15] 	0.28392229947674
scalar tree_4_3_u10_r19_network.node[15].content_store 	hits[15] 	3961
scalar tree_4_3_u10_r19_network.node[15].content_store 	misses[15] 	9990
scalar tree_4_3_u10_r19_network.node[15].content_store 	decision_yes[15] 	9990
scalar tree_4_3_u10_r19_network.node[15].content_store 	decision_no[15] 	0
scalar tree_4_3_u10_r19_network.node[15].content_store 	decision_ratio[15] 	1
scalar tree_4_3_u10_r19_network.node[16].core_layer 	interests[16] 	14155
scalar tree_4_3_u10_r19_network.node[16].core_layer 	data[16] 	9929
scalar tree_4_3_u10_r19_network.node[16].content_store 	p_hit[16] 	0.29855174849876
scalar tree_4_3_u10_r19_network.node[16].content_store 	hits[16] 	4226
scalar tree_4_3_u10_r19_network.node[16].content_store 	misses[16] 	9929
scalar tree_4_3_u10_r19_network.node[16].content_store 	decision_yes[16] 	9929
scalar tree_4_3_u10_r19_network.node[16].content_store 	decision_no[16] 	0
scalar tree_4_3_u10_r19_network.node[16].content_store 	decision_ratio[16] 	1
scalar tree_4_3_u10_r19_network.node[17].core_layer 	interests[17] 	13062
scalar tree_4_3_u10_r19_network.node[17].core_layer 	data[17] 	10043
scalar tree_4_3_u10_r19_network.node[17].content_store 	p_hit[17] 	0.23112846424744
scalar tree_4_3_u10_r19_network.node[17].content_store 	hits[17] 	3019
scalar tree_4_3_u10_r19_network.node[17].content_store 	misses[17] 	10043
scalar tree_4_3_u10_r19_network.node[17].content_store 	decision_yes[17] 	10043
scalar tree_4_3_u10_r19_network.node[17].content_store 	decision_no[17] 	0
scalar tree_4_3_u10_r19_network.node[17].content_store 	decision_ratio[17] 	1
scalar tree_4_3_u10_r19_network.node[18].core_layer 	interests[18] 	13890
scalar tree_4_3_u10_r19_network.node[18].core_layer 	data[18] 	10019
scalar tree_4_3_u10_r19_network.node[18].content_store 	p_hit[18] 	0.27861771058315
scalar tree_4_3_u10_r19_network.node[18].content_store 	hits[18] 	3870
scalar tree_4_3_u10_r19_network.node[18].content_store 	misses[18] 	10020
scalar tree_4_3_u10_r19_network.node[18].content_store 	decision_yes[18] 	10019
scalar tree_4_3_u10_r19_network.node[18].content_store 	decision_no[18] 	0
scalar tree_4_3_u10_r19_network.node[18].content_store 	decision_ratio[18] 	1
scalar tree_4_3_u10_r19_network.node[19].core_layer 	interests[19] 	14019
scalar tree_4_3_u10_r19_network.node[19].core_layer 	data[19] 	10022
scalar tree_4_3_u10_r19_network.node[19].content_store 	p_hit[19] 	0.28504172908196
scalar tree_4_3_u10_r19_network.node[19].content_store 	hits[19] 	3996
scalar tree_4_3_u10_r19_network.node[19].content_store 	misses[19] 	10023
scalar tree_4_3_u10_r19_network.node[19].content_store 	decision_yes[19] 	10022
scalar tree_4_3_u10_r19_network.node[19].content_store 	decision_no[19] 	0
scalar tree_4_3_u10_r19_network.node[19].content_store 	decision_ratio[19] 	1
scalar tree_4_3_u10_r19_network.node[20].core_layer 	interests[20] 	13892
scalar tree_4_3_u10_r19_network.node[20].core_layer 	data[20] 	9939
scalar tree_4_3_u10_r19_network.node[20].content_store 	p_hit[20] 	0.28455226029369
scalar tree_4_3_u10_r19_network.node[20].content_store 	hits[20] 	3953
scalar tree_4_3_u10_r19_network.node[20].content_store 	misses[20] 	9939
scalar tree_4_3_u10_r19_network.node[20].content_store 	decision_yes[20] 	9939
scalar tree_4_3_u10_r19_network.node[20].content_store 	decision_no[20] 	0
scalar tree_4_3_u10_r19_network.node[20].content_store 	decision_ratio[20] 	1
scalar tree_4_3_u10_r19_network.node[21].core_layer 	interests[21] 	12507
scalar tree_4_3_u10_r19_network.node[21].core_layer 	data[21] 	10059
scalar tree_4_3_u10_r19_network.node[21].content_store 	p_hit[21] 	0.19565043575598
scalar tree_4_3_u10_r19_network.node[21].content_store 	hits[21] 	2447
scalar tree_4_3_u10_r19_network.node[21].content_store 	misses[21] 	10060
scalar tree_4_3_u10_r19_network.node[21].content_store 	decision_yes[21] 	10059
scalar tree_4_3_u10_r19_network.node[21].content_store 	decision_no[21] 	0
scalar tree_4_3_u10_r19_network.node[21].content_store 	decision_ratio[21] 	1
scalar tree_4_3_u10_r19_network.node[22].core_layer 	interests[22] 	13147
scalar tree_4_3_u10_r19_network.node[22].core_layer 	data[22] 	9858
scalar tree_4_3_u10_r19_network.node[22].content_store 	p_hit[22] 	0.25001901574504
scalar tree_4_3_u10_r19_network.node[22].content_store 	hits[22] 	3287
scalar tree_4_3_u10_r19_network.node[22].content_store 	misses[22] 	9860
scalar tree_4_3_u10_r19_network.node[22].content_store 	decision_yes[22] 	9858
scalar tree_4_3_u10_r19_network.node[22].content_store 	decision_no[22] 	0
scalar tree_4_3_u10_r19_network.node[22].content_store 	decision_ratio[22] 	1
scalar tree_4_3_u10_r19_network.node[23].core_layer 	interests[23] 	14033
scalar tree_4_3_u10_r19_network.node[23].core_layer 	data[23] 	9985
scalar tree_4_3_u10_r19_network.node[23].content_store 	p_hit[23] 	0.28839164825768
scalar tree_4_3_u10_r19_network.node[23].content_store 	hits[23] 	4047
scalar tree_4_3_u10_r19_network.node[23].content_store 	misses[23] 	9986
scalar tree_4_3_u10_r19_network.node[23].content_store 	decision_yes[23] 	9985
scalar tree_4_3_u10_r19_network.node[23].content_store 	decision_no[23] 	0
scalar tree_4_3_u10_r19_network.node[23].content_store 	decision_ratio[23] 	1
scalar tree_4_3_u10_r19_network.node[24].core_layer 	interests[24] 	14198
scalar tree_4_3_u10_r19_network.node[24].core_layer 	data[24] 	10133
scalar tree_4_3_u10_r19_network.node[24].content_store 	p_hit[24] 	0.28637836314974
scalar tree_4_3_u10_r19_network.node[24].content_store 	hits[24] 	4066
scalar tree_4_3_u10_r19_network.node[24].content_store 	misses[24] 	10132
scalar tree_4_3_u10_r19_network.node[24].content_store 	decision_yes[24] 	10133
scalar tree_4_3_u10_r19_network.node[24].content_store 	decision_no[24] 	0
scalar tree_4_3_u10_r19_network.node[24].content_store 	decision_ratio[24] 	1
scalar tree_4_3_u10_r19_network.node[25].core_layer 	interests[25] 	14162
scalar tree_4_3_u10_r19_network.node[25].core_layer 	data[25] 	10088
scalar tree_4_3_u10_r19_network.node[25].content_store 	p_hit[25] 	0.28767123287671
scalar tree_4_3_u10_r19_network.node[25].content_store 	hits[25] 	4074
scalar tree_4_3_u10_r19_network.node[25].content_store 	misses[25] 	10088
scalar tree_4_3_u10_r19_network.node[25].content_store 	decision_yes[25] 	10088
scalar tree_4_3_u10_r19_network.node[25].content_store 	decision_no[25] 	0
scalar tree_4_3_u10_r19_network.node[25].content_store 	decision_ratio[25] 	1
scalar tree_4_3_u10_r19_network.node[26].core_layer 	interests[26] 	12905
scalar tree_4_3_u10_r19_network.node[26].core_layer 	data[26] 	10117
scalar tree_4_3_u10_r19_network.node[26].content_store 	p_hit[26] 	0.21604029445951
scalar tree_4_3_u10_r19_network.node[26].content_store 	hits[26] 	2788
scalar tree_4_3_u10_r19_network.node[26].content_store 	misses[26] 	10117
scalar tree_4_3_u10_r19_network.node[26].content_store 	decision_yes[26] 	10117
scalar tree_4_3_u10_r19_network.node[26].content_store 	decision_no[26] 	0
scalar tree_4_3_u10_r19_network.node[26].content_store 	decision_ratio[26] 	1
scalar tree_4_3_u10_r19_network.node[27].core_layer 	interests[27] 	13762
scalar tree_4_3_u10_r19_network.node[27].core_layer 	data[27] 	10007
scalar tree_4_3_u10_r19_network.node[27].content_store 	p_hit[27] 	0.27285278302572
scalar tree_4_3_u10_r19_network.node[27].content_store 	hits[27] 	3755
scalar tree_4_3_u10_r19_network.node[27].content_store 	misses[27] 	10007
scalar tree_4_3_u10_r19_network.node[27].content_store 	decision_yes[27] 	10007
scalar tree_4_3_u10_r19_network.node[27].content_store 	decision_no[27] 	0
scalar tree_4_3_u10_r19_network.node[27].content_store 	decision_ratio[27] 	1
scalar tree_4_3_u10_r19_network.node[28].core_layer 	interests[28] 	14252
scalar tree_4_3_u10_r19_network.node[28].core_layer 	data[28] 	10114
scalar tree_4_3_u10_r19_network.node[28].content_store 	p_hit[28] 	0.29034521470671
scalar tree_4_3_u10_r19_network.node[28].content_store 	hits[28] 	4138
scalar tree_4_3_u10_r19_network.node[28].content_store 	misses[28] 	10114
scalar tree_4_3_u10_r19_network.node[28].content_store 	decision_yes[28] 	10114
scalar tree_4_3_u10_r19_network.node[28].content_store 	decision_no[28] 	0
scalar tree_4_3_u10_r19_network.node[28].content_store 	decision_ratio[28] 	1
scalar tree_4_3_u10_r19_network.node[29].core_layer 	interests[29] 	13772
scalar tree_4_3_u10_r19_network.node[29].core_layer 	data[29] 	10007
scalar tree_4_3_u10_r19_network.node[29].content_store 	p_hit[29] 	0.27330816148708
scalar tree_4_3_u10_r19_network.node[29].content_store 	hits[29] 	3764
scalar tree_4_3_u10_r19_network.node[29].content_store 	misses[29] 	10008
scalar tree_4_3_u10_r19_network.node[29].content_store 	decision_yes[29] 	10007
scalar tree_4_3_u10_r19_network.node[29].content_store 	decision_no[29] 	0
scalar tree_4_3_u10_r19_network.node[29].content_store 	decision_ratio[29] 	1
scalar tree_4_3_u10_r19_network.node[30].core_layer 	interests[30] 	12385
scalar tree_4_3_u10_r19_network.node[30].core_layer 	data[30] 	9879
scalar tree_4_3_u10_r19_network.node[30].content_store 	p_hit[30] 	0.20226079935406
scalar tree_4_3_u10_r19_network.node[30].content_store 	hits[30] 	2505
scalar tree_4_3_u10_r19_network.node[30].content_store 	misses[30] 	9880
scalar tree_4_3_u10_r19_network.node[30].content_store 	decision_yes[30] 	9879
scalar tree_4_3_u10_r19_network.node[30].content_store 	decision_no[30] 	0
scalar tree_4_3_u10_r19_network.node[30].content_store 	decision_ratio[30] 	1
scalar tree_4_3_u10_r19_network.node[31].core_layer 	interests[31] 	13459
scalar tree_4_3_u10_r19_network.node[31].core_layer 	data[31] 	10101
scalar tree_4_3_u10_r19_network.node[31].content_store 	p_hit[31] 	0.24942417713054
scalar tree_4_3_u10_r19_network.node[31].content_store 	hits[31] 	3357
scalar tree_4_3_u10_r19_network.node[31].content_store 	misses[31] 	10102
scalar tree_4_3_u10_r19_network.node[31].content_store 	decision_yes[31] 	10101
scalar tree_4_3_u10_r19_network.node[31].content_store 	decision_no[31] 	0
scalar tree_4_3_u10_r19_network.node[31].content_store 	decision_ratio[31] 	1
scalar tree_4_3_u10_r19_network.node[32].core_layer 	interests[32] 	14297
scalar tree_4_3_u10_r19_network.node[32].core_layer 	data[32] 	10232
scalar tree_4_3_u10_r19_network.node[32].content_store 	p_hit[32] 	0.28418549346017
scalar tree_4_3_u10_r19_network.node[32].content_store 	hits[32] 	4063
scalar tree_4_3_u10_r19_network.node[32].content_store 	misses[32] 	10234
scalar tree_4_3_u10_r19_network.node[32].content_store 	decision_yes[32] 	10232
scalar tree_4_3_u10_r19_network.node[32].content_store 	decision_no[32] 	0
scalar tree_4_3_u10_r19_network.node[32].content_store 	decision_ratio[32] 	1
scalar tree_4_3_u10_r19_network.node[33].core_layer 	interests[33] 	13832
scalar tree_4_3_u10_r19_network.node[33].core_layer 	data[33] 	10004
scalar tree_4_3_u10_r19_network.node[33].content_store 	p_hit[33] 	0.2766049739734
scalar tree_4_3_u10_r19_network.node[33].content_store 	hits[33] 	3826
scalar tree_4_3_u10_r19_network.node[33].content_store 	misses[33] 	10006
scalar tree_4_3_u10_r19_network.node[33].content_store 	decision_yes[33] 	10004
scalar tree_4_3_u10_r19_network.node[33].content_store 	decision_no[33] 	0
scalar tree_4_3_u10_r19_network.node[33].content_store 	decision_ratio[33] 	1
scalar tree_4_3_u10_r19_network.node[34].core_layer 	interests[34] 	14304
scalar tree_4_3_u10_r19_network.node[34].core_layer 	data[34] 	10149
scalar tree_4_3_u10_r19_network.node[34].content_store 	p_hit[34] 	0.29047818791946
scalar tree_4_3_u10_r19_network.node[34].content_store 	hits[34] 	4155
scalar tree_4_3_u10_r19_network.node[34].content_store 	misses[34] 	10149
scalar tree_4_3_u10_r19_network.node[34].content_store 	decision_yes[34] 	10149
scalar tree_4_3_u10_r19_network.node[34].content_store 	decision_no[34] 	0
scalar tree_4_3_u10_r19_network.node[34].content_store 	decision_ratio[34] 	1
scalar tree_4_3_u10_r19_network.node[35].core_layer 	interests[35] 	13195
scalar tree_4_3_u10_r19_network.node[35].core_layer 	data[35] 	10190
scalar tree_4_3_u10_r19_network.node[35].content_store 	p_hit[35] 	0.22766199317923
scalar tree_4_3_u10_r19_network.node[35].content_store 	hits[35] 	3004
scalar tree_4_3_u10_r19_network.node[35].content_store 	misses[35] 	10191
scalar tree_4_3_u10_r19_network.node[35].content_store 	decision_yes[35] 	10190
scalar tree_4_3_u10_r19_network.node[35].content_store 	decision_no[35] 	0
scalar tree_4_3_u10_r19_network.node[35].content_store 	decision_ratio[35] 	1
scalar tree_4_3_u10_r19_network.node[36].core_layer 	interests[36] 	13942
scalar tree_4_3_u10_r19_network.node[36].core_layer 	data[36] 	10164
scalar tree_4_3_u10_r19_network.node[36].content_store 	p_hit[36] 	0.27097977334672
scalar tree_4_3_u10_r19_network.node[36].content_store 	hits[36] 	3778
scalar tree_4_3_u10_r19_network.node[36].content_store 	misses[36] 	10164
scalar tree_4_3_u10_r19_network.node[36].content_store 	decision_yes[36] 	10164
scalar tree_4_3_u10_r19_network.node[36].content_store 	decision_no[36] 	0
scalar tree_4_3_u10_r19_network.node[36].content_store 	decision_ratio[36] 	1
scalar tree_4_3_u10_r19_network.node[37].core_layer 	interests[37] 	13927
scalar tree_4_3_u10_r19_network.node[37].core_layer 	data[37] 	10062
scalar tree_4_3_u10_r19_network.node[37].content_store 	p_hit[37] 	0.27751848926546
scalar tree_4_3_u10_r19_network.node[37].content_store 	hits[37] 	3865
scalar tree_4_3_u10_r19_network.node[37].content_store 	misses[37] 	10062
scalar tree_4_3_u10_r19_network.node[37].content_store 	decision_yes[37] 	10062
scalar tree_4_3_u10_r19_network.node[37].content_store 	decision_no[37] 	0
scalar tree_4_3_u10_r19_network.node[37].content_store 	decision_ratio[37] 	1
scalar tree_4_3_u10_r19_network.node[38].core_layer 	interests[38] 	13730
scalar tree_4_3_u10_r19_network.node[38].core_layer 	data[38] 	9999
scalar tree_4_3_u10_r19_network.node[38].content_store 	p_hit[38] 	0.27174071376548
scalar tree_4_3_u10_r19_network.node[38].content_store 	hits[38] 	3731
scalar tree_4_3_u10_r19_network.node[38].content_store 	misses[38] 	9999
scalar tree_4_3_u10_r19_network.node[38].content_store 	decision_yes[38] 	9999
scalar tree_4_3_u10_r19_network.node[38].content_store 	decision_no[38] 	0
scalar tree_4_3_u10_r19_network.node[38].content_store 	decision_ratio[38] 	1
scalar tree_4_3_u10_r19_network.node[39].core_layer 	interests[39] 	12206
scalar tree_4_3_u10_r19_network.node[39].core_layer 	data[39] 	10083
scalar tree_4_3_u10_r19_network.node[39].content_store 	p_hit[39] 	0.17393085367852
scalar tree_4_3_u10_r19_network.node[39].content_store 	hits[39] 	2123
scalar tree_4_3_u10_r19_network.node[39].content_store 	misses[39] 	10083
scalar tree_4_3_u10_r19_network.node[39].content_store 	decision_yes[39] 	10083
scalar tree_4_3_u10_r19_network.node[39].content_store 	decision_no[39] 	0
scalar tree_4_3_u10_r19_network.node[39].content_store 	decision_ratio[39] 	1
scalar tree_4_3_u10_r19_network.client[13] 	hdistance[13] 	3.090539081319
scalar tree_4_3_u10_r19_network.client[13] 	downloads[13] 	12039
scalar tree_4_3_u10_r19_network.client[13] 	avg_time[13] 	0.004924658514
scalar tree_4_3_u10_r19_network.client[14] 	hdistance[14] 	2.9469602201651
scalar tree_4_3_u10_r19_network.client[14] 	downloads[14] 	11991
scalar tree_4_3_u10_r19_network.client[14] 	avg_time[14] 	0.004701259556
scalar tree_4_3_u10_r19_network.client[15] 	hdistance[15] 	2.9285893469354
scalar tree_4_3_u10_r19_network.client[15] 	downloads[15] 	11959
scalar tree_4_3_u10_r19_network.client[15] 	avg_time[15] 	0.004659918372
scalar tree_4_3_u10_r19_network.client[16] 	hdistance[16] 	2.9598244429439
scalar tree_4_3_u10_r19_network.client[16] 	downloads[16] 	11848
scalar tree_4_3_u10_r19_network.client[16] 	avg_time[16] 	0.004723663484
scalar tree_4_3_u10_r19_network.client[17] 	hdistance[17] 	3.0573915983433
scalar tree_4_3_u10_r19_network.client[17] 	downloads[17] 	11831
scalar tree_4_3_u10_r19_network.client[17] 	avg_time[17] 	0.004919137709
scalar tree_4_3_u10_r19_network.client[18] 	hdistance[18] 	2.9151763329433
scalar tree_4_3_u10_r19_network.client[18] 	downloads[18] 	11966
scalar tree_4_3_u10_r19_network.client[18] 	avg_time[18] 	0.004640880704
scalar tree_4_3_u10_r19_network.client[19] 	hdistance[19] 	2.9032873983065
scalar tree_4_3_u10_r19_network.client[19] 	downloads[19] 	12046
scalar tree_4_3_u10_r19_network.client[19] 	avg_time[19] 	0.004628999235
scalar tree_4_3_u10_r19_network.client[20] 	hdistance[20] 	2.887275474232
scalar tree_4_3_u10_r19_network.client[20] 	downloads[20] 	11914
scalar tree_4_3_u10_r19_network.client[20] 	avg_time[20] 	0.004601886802
scalar tree_4_3_u10_r19_network.client[21] 	hdistance[21] 	3.007862161258
scalar tree_4_3_u10_r19_network.client[21] 	downloads[21] 	11956
scalar tree_4_3_u10_r19_network.client[21] 	avg_time[21] 	0.004829459988
scalar tree_4_3_u10_r19_network.client[22] 	hdistance[22] 	3.0345122159576
scalar tree_4_3_u10_r19_network.client[22] 	downloads[22] 	11706
scalar tree_4_3_u10_r19_network.client[22] 	avg_time[22] 	0.004872166431
scalar tree_4_3_u10_r19_network.client[23] 	hdistance[23] 	2.9711109239451
scalar tree_4_3_u10_r19_network.client[23] 	downloads[23] 	11873
scalar tree_4_3_u10_r19_network.client[23] 	avg_time[23] 	0.004735915752
scalar tree_4_3_u10_r19_network.client[24] 	hdistance[24] 	2.9223525524533
scalar tree_4_3_u10_r19_network.client[24] 	downloads[24] 	12106
scalar tree_4_3_u10_r19_network.client[24] 	avg_time[24] 	0.004658544451
scalar tree_4_3_u10_r19_network.client[25] 	hdistance[25] 	2.9780595645282
scalar tree_4_3_u10_r19_network.client[25] 	downloads[25] 	11987
scalar tree_4_3_u10_r19_network.client[25] 	avg_time[25] 	0.004756379863
scalar tree_4_3_u10_r19_network.client[26] 	hdistance[26] 	3.0834029053264
scalar tree_4_3_u10_r19_network.client[26] 	downloads[26] 	11978
scalar tree_4_3_u10_r19_network.client[26] 	avg_time[26] 	0.004919841651
scalar tree_4_3_u10_r19_network.client[27] 	hdistance[27] 	2.941541038526
scalar tree_4_3_u10_r19_network.client[27] 	downloads[27] 	11940
scalar tree_4_3_u10_r19_network.client[27] 	avg_time[27] 	0.004686204229
scalar tree_4_3_u10_r19_network.client[28] 	hdistance[28] 	2.9084999588579
scalar tree_4_3_u10_r19_network.client[28] 	downloads[28] 	12153
scalar tree_4_3_u10_r19_network.client[28] 	avg_time[28] 	0.004635889358
scalar tree_4_3_u10_r19_network.client[29] 	hdistance[29] 	2.931338028169
scalar tree_4_3_u10_r19_network.client[29] 	downloads[29] 	11928
scalar tree_4_3_u10_r19_network.client[29] 	avg_time[29] 	0.004677920407
scalar tree_4_3_u10_r19_network.client[30] 	hdistance[30] 	2.9881436314363
scalar tree_4_3_u10_r19_network.client[30] 	downloads[30] 	11808
scalar tree_4_3_u10_r19_network.client[30] 	avg_time[30] 	0.004787897519
scalar tree_4_3_u10_r19_network.client[31] 	hdistance[31] 	3.008045119018
scalar tree_4_3_u10_r19_network.client[31] 	downloads[31] 	12057
scalar tree_4_3_u10_r19_network.client[31] 	avg_time[31] 	0.004827791296
scalar tree_4_3_u10_r19_network.client[32] 	hdistance[32] 	2.9688455499545
scalar tree_4_3_u10_r19_network.client[32] 	downloads[32] 	12101
scalar tree_4_3_u10_r19_network.client[32] 	avg_time[32] 	0.004736047618
scalar tree_4_3_u10_r19_network.client[33] 	hdistance[33] 	2.9527168892248
scalar tree_4_3_u10_r19_network.client[33] 	downloads[33] 	11907
scalar tree_4_3_u10_r19_network.client[33] 	avg_time[33] 	0.004707638406
scalar tree_4_3_u10_r19_network.client[34] 	hdistance[34] 	2.9504310344828
scalar tree_4_3_u10_r19_network.client[34] 	downloads[34] 	12064
scalar tree_4_3_u10_r19_network.client[34] 	avg_time[34] 	0.004713440271
scalar tree_4_3_u10_r19_network.client[35] 	hdistance[35] 	3.0398541718452
scalar tree_4_3_u10_r19_network.client[35] 	downloads[35] 	12069
scalar tree_4_3_u10_r19_network.client[35] 	avg_time[35] 	0.004869861129
scalar tree_4_3_u10_r19_network.client[36] 	hdistance[36] 	2.9266039914234
scalar tree_4_3_u10_r19_network.client[36] 	downloads[36] 	12126
scalar tree_4_3_u10_r19_network.client[36] 	avg_time[36] 	0.004664519459
scalar tree_4_3_u10_r19_network.client[37] 	hdistance[37] 	2.95025
scalar tree_4_3_u10_r19_network.client[37] 	downloads[37] 	12000
scalar tree_4_3_u10_r19_network.client[37] 	avg_time[37] 	0.004691163694
scalar tree_4_3_u10_r19_network.client[38] 	hdistance[38] 	2.9407283382168
scalar tree_4_3_u10_r19_network.client[38] 	downloads[38] 	11945
scalar tree_4_3_u10_r19_network.client[38] 	avg_time[38] 	0.004678607316
scalar tree_4_3_u10_r19_network.client[39] 	hdistance[39] 	3.0723568374277
scalar tree_4_3_u10_r19_network.client[39] 	downloads[39] 	11927
scalar tree_4_3_u10_r19_network.client[39] 	avg_time[39] 	0.004893935159
