version 2
run General-200-20160819-18:13:50-23511
attr a 0.9
attr cd lce
attr configname General
attr cr lru
attr datetime 20160819-18:13:50
attr experiment General
attr fsize 1
attr inifile hw5115/scenario_A/NRR-LCE.ini
attr iterationvars "$name=tree_4_3, $un=10, $rep=1, $cd=lce, $cr=lru, $fsize=1, $a=0.9, $sl=nrr, $ttl=1000, $variance=0.05"
attr iterationvars2 "$name=tree_4_3, $un=10, $rep=1, $cd=lce, $cr=lru, $fsize=1, $a=0.9, $sl=nrr, $ttl=1000, $variance=0.05, $repetition=0"
attr measurement "$name=tree_4_3, $un=10, $rep=1, $cd=lce, $cr=lru, $fsize=1, $a=0.9, $sl=nrr, $ttl=1000, $variance=0.05"
attr name tree_4_3
attr network networks.${name}_u${un}_r${rep}_network
attr processid 23511
attr rep 1
attr repetition 0
attr replication #0
attr resultdir results
attr runnumber 200
attr seedset 1
attr sl nrr
attr ttl 1000
attr un 10
attr variance 0.05

scalar . 	a 	0.9
scalar . 	fsize 	1
scalar . 	rep 	1
scalar . 	ttl 	1000
scalar . 	un 	10
scalar . 	variance 	0.05
scalar tree_4_3_u10_r1_network.content_distribution 	repo-0 	0
scalar tree_4_3_u10_r1_network.content_distribution 	client-0 	13
scalar tree_4_3_u10_r1_network.content_distribution 	client-1 	14
scalar tree_4_3_u10_r1_network.content_distribution 	client-2 	15
scalar tree_4_3_u10_r1_network.content_distribution 	client-3 	16
scalar tree_4_3_u10_r1_network.content_distribution 	client-4 	17
scalar tree_4_3_u10_r1_network.content_distribution 	client-5 	18
scalar tree_4_3_u10_r1_network.content_distribution 	client-6 	19
scalar tree_4_3_u10_r1_network.content_distribution 	client-7 	20
scalar tree_4_3_u10_r1_network.content_distribution 	client-8 	21
scalar tree_4_3_u10_r1_network.content_distribution 	client-9 	22
scalar tree_4_3_u10_r1_network.content_distribution 	client-10 	23
scalar tree_4_3_u10_r1_network.content_distribution 	client-11 	24
scalar tree_4_3_u10_r1_network.content_distribution 	client-12 	25
scalar tree_4_3_u10_r1_network.content_distribution 	client-13 	26
scalar tree_4_3_u10_r1_network.content_distribution 	client-14 	27
scalar tree_4_3_u10_r1_network.content_distribution 	client-15 	28
scalar tree_4_3_u10_r1_network.content_distribution 	client-16 	29
scalar tree_4_3_u10_r1_network.content_distribution 	client-17 	30
scalar tree_4_3_u10_r1_network.content_distribution 	client-18 	31
scalar tree_4_3_u10_r1_network.content_distribution 	client-19 	32
scalar tree_4_3_u10_r1_network.content_distribution 	client-20 	33
scalar tree_4_3_u10_r1_network.content_distribution 	client-21 	34
scalar tree_4_3_u10_r1_network.content_distribution 	client-22 	35
scalar tree_4_3_u10_r1_network.content_distribution 	client-23 	36
scalar tree_4_3_u10_r1_network.content_distribution 	client-24 	37
scalar tree_4_3_u10_r1_network.content_distribution 	client-25 	38
scalar tree_4_3_u10_r1_network.content_distribution 	client-26 	39
scalar tree_4_3_u10_r1_network.content_distribution 	repo-0_card 	100000
scalar tree_4_3_u10_r1_network.content_distribution 	repo-0_price 	0
scalar tree_4_3_u10_r1_network.statistics 	stabilization_time 	473.3
scalar tree_4_3_u10_r1_network.statistics 	p_hit 	0.20911352396999
scalar tree_4_3_u10_r1_network.statistics 	interests 	27278.15
scalar tree_4_3_u10_r1_network.statistics 	data 	19197.05
scalar tree_4_3_u10_r1_network.statistics 	hdistance 	2.9749555114841
scalar tree_4_3_u10_r1_network.statistics 	avg_time 	0.004751085519
scalar tree_4_3_u10_r1_network.statistics 	downloads 	323222
scalar tree_4_3_u10_r1_network.statistics 	total_cost 	0
scalar tree_4_3_u10_r1_network.statistics 	total_replicas 	100000
scalar tree_4_3_u10_r1_network.statistics 	inner_hit 	0.4004863530329
scalar tree_4_3_u10_r1_network.node[0].core_layer 	interests[0] 	194155
scalar tree_4_3_u10_r1_network.node[0].core_layer 	repo_load[0] 	193776
scalar tree_4_3_u10_r1_network.node[0].core_layer 	data[0] 	0
scalar tree_4_3_u10_r1_network.node[0].core_layer 	repo_int[0] 	193776
scalar tree_4_3_u10_r1_network.node[0].content_store 	p_hit[0] 	0.0019520486209472
scalar tree_4_3_u10_r1_network.node[0].content_store 	hits[0] 	379
scalar tree_4_3_u10_r1_network.node[0].content_store 	misses[0] 	193776
scalar tree_4_3_u10_r1_network.node[0].content_store 	decision_yes[0] 	193776
scalar tree_4_3_u10_r1_network.node[0].content_store 	decision_no[0] 	0
scalar tree_4_3_u10_r1_network.node[0].content_store 	decision_ratio[0] 	1
scalar tree_4_3_u10_r1_network.node[1].core_layer 	interests[1] 	151074
scalar tree_4_3_u10_r1_network.node[1].core_layer 	data[1] 	149900
scalar tree_4_3_u10_r1_network.node[1].content_store 	p_hit[1] 	0.0077313104836041
scalar tree_4_3_u10_r1_network.node[1].content_store 	hits[1] 	1168
scalar tree_4_3_u10_r1_network.node[1].content_store 	misses[1] 	149906
scalar tree_4_3_u10_r1_network.node[1].content_store 	decision_yes[1] 	149875
scalar tree_4_3_u10_r1_network.node[1].content_store 	decision_no[1] 	0
scalar tree_4_3_u10_r1_network.node[1].content_store 	decision_ratio[1] 	1
scalar tree_4_3_u10_r1_network.node[2].core_layer 	interests[2] 	60683
scalar tree_4_3_u10_r1_network.node[2].core_layer 	data[2] 	59205
scalar tree_4_3_u10_r1_network.node[2].content_store 	p_hit[2] 	0.024323121796879
scalar tree_4_3_u10_r1_network.node[2].content_store 	hits[2] 	1476
scalar tree_4_3_u10_r1_network.node[2].content_store 	misses[2] 	59207
scalar tree_4_3_u10_r1_network.node[2].content_store 	decision_yes[2] 	59195
scalar tree_4_3_u10_r1_network.node[2].content_store 	decision_no[2] 	0
scalar tree_4_3_u10_r1_network.node[2].content_store 	decision_ratio[2] 	1
scalar tree_4_3_u10_r1_network.node[3].core_layer 	interests[3] 	16774
scalar tree_4_3_u10_r1_network.node[3].core_layer 	data[3] 	13552
scalar tree_4_3_u10_r1_network.node[3].content_store 	p_hit[3] 	0.19208298557291
scalar tree_4_3_u10_r1_network.node[3].content_store 	hits[3] 	3222
scalar tree_4_3_u10_r1_network.node[3].content_store 	misses[3] 	13552
scalar tree_4_3_u10_r1_network.node[3].content_store 	decision_yes[3] 	13550
scalar tree_4_3_u10_r1_network.node[3].content_store 	decision_no[3] 	0
scalar tree_4_3_u10_r1_network.node[3].content_store 	decision_ratio[3] 	1
scalar tree_4_3_u10_r1_network.node[4].core_layer 	interests[4] 	47339
scalar tree_4_3_u10_r1_network.node[4].core_layer 	data[4] 	45669
scalar tree_4_3_u10_r1_network.node[4].content_store 	p_hit[4] 	0.035214094087328
scalar tree_4_3_u10_r1_network.node[4].content_store 	hits[4] 	1667
scalar tree_4_3_u10_r1_network.node[4].content_store 	misses[4] 	45672
scalar tree_4_3_u10_r1_network.node[4].content_store 	decision_yes[4] 	45668
scalar tree_4_3_u10_r1_network.node[4].content_store 	decision_no[4] 	0
scalar tree_4_3_u10_r1_network.node[4].content_store 	decision_ratio[4] 	1
scalar tree_4_3_u10_r1_network.node[5].core_layer 	interests[5] 	34986
scalar tree_4_3_u10_r1_network.node[5].core_layer 	data[5] 	32030
scalar tree_4_3_u10_r1_network.node[5].content_store 	p_hit[5] 	0.084490939232836
scalar tree_4_3_u10_r1_network.node[5].content_store 	hits[5] 	2956
scalar tree_4_3_u10_r1_network.node[5].content_store 	misses[5] 	32030
scalar tree_4_3_u10_r1_network.node[5].content_store 	decision_yes[5] 	32023
scalar tree_4_3_u10_r1_network.node[5].content_store 	decision_no[5] 	0
scalar tree_4_3_u10_r1_network.node[5].content_store 	decision_ratio[5] 	1
scalar tree_4_3_u10_r1_network.node[6].core_layer 	interests[6] 	18300
scalar tree_4_3_u10_r1_network.node[6].core_layer 	data[6] 	13681
scalar tree_4_3_u10_r1_network.node[6].content_store 	p_hit[6] 	0.2524043715847
scalar tree_4_3_u10_r1_network.node[6].content_store 	hits[6] 	4619
scalar tree_4_3_u10_r1_network.node[6].content_store 	misses[6] 	13681
scalar tree_4_3_u10_r1_network.node[6].content_store 	decision_yes[6] 	13680
scalar tree_4_3_u10_r1_network.node[6].content_store 	decision_no[6] 	0
scalar tree_4_3_u10_r1_network.node[6].content_store 	decision_ratio[6] 	1
scalar tree_4_3_u10_r1_network.node[7].core_layer 	interests[7] 	51402
scalar tree_4_3_u10_r1_network.node[7].core_layer 	data[7] 	48913
scalar tree_4_3_u10_r1_network.node[7].content_store 	p_hit[7] 	0.048305513404148
scalar tree_4_3_u10_r1_network.node[7].content_store 	hits[7] 	2483
scalar tree_4_3_u10_r1_network.node[7].content_store 	misses[7] 	48919
scalar tree_4_3_u10_r1_network.node[7].content_store 	decision_yes[7] 	48905
scalar tree_4_3_u10_r1_network.node[7].content_store 	decision_no[7] 	0
scalar tree_4_3_u10_r1_network.node[7].content_store 	decision_ratio[7] 	1
scalar tree_4_3_u10_r1_network.node[8].core_layer 	interests[8] 	30164
scalar tree_4_3_u10_r1_network.node[8].core_layer 	data[8] 	28372
scalar tree_4_3_u10_r1_network.node[8].content_store 	p_hit[8] 	0.059375414401273
scalar tree_4_3_u10_r1_network.node[8].content_store 	hits[8] 	1791
scalar tree_4_3_u10_r1_network.node[8].content_store 	misses[8] 	28373
scalar tree_4_3_u10_r1_network.node[8].content_store 	decision_yes[8] 	28367
scalar tree_4_3_u10_r1_network.node[8].content_store 	decision_no[8] 	0
scalar tree_4_3_u10_r1_network.node[8].content_store 	decision_ratio[8] 	1
scalar tree_4_3_u10_r1_network.node[9].core_layer 	interests[9] 	18356
scalar tree_4_3_u10_r1_network.node[9].core_layer 	data[9] 	13952
scalar tree_4_3_u10_r1_network.node[9].content_store 	p_hit[9] 	0.23986707343648
scalar tree_4_3_u10_r1_network.node[9].content_store 	hits[9] 	4403
scalar tree_4_3_u10_r1_network.node[9].content_store 	misses[9] 	13953
scalar tree_4_3_u10_r1_network.node[9].content_store 	decision_yes[9] 	13950
scalar tree_4_3_u10_r1_network.node[9].content_store 	decision_no[9] 	0
scalar tree_4_3_u10_r1_network.node[9].content_store 	decision_ratio[9] 	1
scalar tree_4_3_u10_r1_network.node[10].core_layer 	interests[10] 	51132
scalar tree_4_3_u10_r1_network.node[10].core_layer 	data[10] 	48740
scalar tree_4_3_u10_r1_network.node[10].content_store 	p_hit[10] 	0.04676132363295
scalar tree_4_3_u10_r1_network.node[10].content_store 	hits[10] 	2391
scalar tree_4_3_u10_r1_network.node[10].content_store 	misses[10] 	48741
scalar tree_4_3_u10_r1_network.node[10].content_store 	decision_yes[10] 	48736
scalar tree_4_3_u10_r1_network.node[10].content_store 	decision_no[10] 	0
scalar tree_4_3_u10_r1_network.node[10].content_store 	decision_ratio[10] 	1
scalar tree_4_3_u10_r1_network.node[11].core_layer 	interests[11] 	33747
scalar tree_4_3_u10_r1_network.node[11].core_layer 	data[11] 	31116
scalar tree_4_3_u10_r1_network.node[11].content_store 	p_hit[11] 	0.077962485554271
scalar tree_4_3_u10_r1_network.node[11].content_store 	hits[11] 	2631
scalar tree_4_3_u10_r1_network.node[11].content_store 	misses[11] 	31116
scalar tree_4_3_u10_r1_network.node[11].content_store 	decision_yes[11] 	31113
scalar tree_4_3_u10_r1_network.node[11].content_store 	decision_no[11] 	0
scalar tree_4_3_u10_r1_network.node[11].content_store 	decision_ratio[11] 	1
scalar tree_4_3_u10_r1_network.node[12].core_layer 	interests[12] 	14517
scalar tree_4_3_u10_r1_network.node[12].core_layer 	data[12] 	11315
scalar tree_4_3_u10_r1_network.node[12].content_store 	p_hit[12] 	0.22050010332713
scalar tree_4_3_u10_r1_network.node[12].content_store 	hits[12] 	3201
scalar tree_4_3_u10_r1_network.node[12].content_store 	misses[12] 	11316
scalar tree_4_3_u10_r1_network.node[12].content_store 	decision_yes[12] 	11314
scalar tree_4_3_u10_r1_network.node[12].content_store 	decision_no[12] 	0
scalar tree_4_3_u10_r1_network.node[12].content_store 	decision_ratio[12] 	1
scalar tree_4_3_u10_r1_network.node[13].core_layer 	interests[13] 	13079
scalar tree_4_3_u10_r1_network.node[13].core_layer 	data[13] 	10092
scalar tree_4_3_u10_r1_network.node[13].content_store 	p_hit[13] 	0.228304916278
scalar tree_4_3_u10_r1_network.node[13].content_store 	hits[13] 	2986
scalar tree_4_3_u10_r1_network.node[13].content_store 	misses[13] 	10093
scalar tree_4_3_u10_r1_network.node[13].content_store 	decision_yes[13] 	10092
scalar tree_4_3_u10_r1_network.node[13].content_store 	decision_no[13] 	0
scalar tree_4_3_u10_r1_network.node[13].content_store 	decision_ratio[13] 	1
scalar tree_4_3_u10_r1_network.node[14].core_layer 	interests[14] 	14132
scalar tree_4_3_u10_r1_network.node[14].core_layer 	data[14] 	10024
scalar tree_4_3_u10_r1_network.node[14].content_store 	p_hit[14] 	0.29061703934333
scalar tree_4_3_u10_r1_network.node[14].content_store 	hits[14] 	4107
scalar tree_4_3_u10_r1_network.node[14].content_store 	misses[14] 	10025
scalar tree_4_3_u10_r1_network.node[14].content_store 	decision_yes[14] 	10024
scalar tree_4_3_u10_r1_network.node[14].content_store 	decision_no[14] 	0
scalar tree_4_3_u10_r1_network.node[14].content_store 	decision_ratio[14] 	1
scalar tree_4_3_u10_r1_network.node[15].core_layer 	interests[15] 	14126
scalar tree_4_3_u10_r1_network.node[15].core_layer 	data[15] 	10090
scalar tree_4_3_u10_r1_network.node[15].content_store 	p_hit[15] 	0.28571428571429
scalar tree_4_3_u10_r1_network.node[15].content_store 	hits[15] 	4036
scalar tree_4_3_u10_r1_network.node[15].content_store 	misses[15] 	10090
scalar tree_4_3_u10_r1_network.node[15].content_store 	decision_yes[15] 	10090
scalar tree_4_3_u10_r1_network.node[15].content_store 	decision_no[15] 	0
scalar tree_4_3_u10_r1_network.node[15].content_store 	decision_ratio[15] 	1
scalar tree_4_3_u10_r1_network.node[16].core_layer 	interests[16] 	14100
scalar tree_4_3_u10_r1_network.node[16].core_layer 	data[16] 	9956
scalar tree_4_3_u10_r1_network.node[16].content_store 	p_hit[16] 	0.29382978723404
scalar tree_4_3_u10_r1_network.node[16].content_store 	hits[16] 	4143
scalar tree_4_3_u10_r1_network.node[16].content_store 	misses[16] 	9957
scalar tree_4_3_u10_r1_network.node[16].content_store 	decision_yes[16] 	9956
scalar tree_4_3_u10_r1_network.node[16].content_store 	decision_no[16] 	0
scalar tree_4_3_u10_r1_network.node[16].content_store 	decision_ratio[16] 	1
scalar tree_4_3_u10_r1_network.node[17].core_layer 	interests[17] 	13256
scalar tree_4_3_u10_r1_network.node[17].core_layer 	data[17] 	10170
scalar tree_4_3_u10_r1_network.node[17].content_store 	p_hit[17] 	0.23280024140012
scalar tree_4_3_u10_r1_network.node[17].content_store 	hits[17] 	3086
scalar tree_4_3_u10_r1_network.node[17].content_store 	misses[17] 	10170
scalar tree_4_3_u10_r1_network.node[17].content_store 	decision_yes[17] 	10170
scalar tree_4_3_u10_r1_network.node[17].content_store 	decision_no[17] 	0
scalar tree_4_3_u10_r1_network.node[17].content_store 	decision_ratio[17] 	1
scalar tree_4_3_u10_r1_network.node[18].core_layer 	interests[18] 	14015
scalar tree_4_3_u10_r1_network.node[18].core_layer 	data[18] 	10151
scalar tree_4_3_u10_r1_network.node[18].content_store 	p_hit[18] 	0.27570460221192
scalar tree_4_3_u10_r1_network.node[18].content_store 	hits[18] 	3864
scalar tree_4_3_u10_r1_network.node[18].content_store 	misses[18] 	10151
scalar tree_4_3_u10_r1_network.node[18].content_store 	decision_yes[18] 	10151
scalar tree_4_3_u10_r1_network.node[18].content_store 	decision_no[18] 	0
scalar tree_4_3_u10_r1_network.node[18].content_store 	decision_ratio[18] 	1
scalar tree_4_3_u10_r1_network.node[19].core_layer 	interests[19] 	13869
scalar tree_4_3_u10_r1_network.node[19].core_layer 	data[19] 	9996
scalar tree_4_3_u10_r1_network.node[19].content_store 	p_hit[19] 	0.27918379118898
scalar tree_4_3_u10_r1_network.node[19].content_store 	hits[19] 	3872
scalar tree_4_3_u10_r1_network.node[19].content_store 	misses[19] 	9997
scalar tree_4_3_u10_r1_network.node[19].content_store 	decision_yes[19] 	9996
scalar tree_4_3_u10_r1_network.node[19].content_store 	decision_no[19] 	0
scalar tree_4_3_u10_r1_network.node[19].content_store 	decision_ratio[19] 	1
scalar tree_4_3_u10_r1_network.node[20].core_layer 	interests[20] 	13878
scalar tree_4_3_u10_r1_network.node[20].core_layer 	data[20] 	10114
scalar tree_4_3_u10_r1_network.node[20].content_store 	p_hit[20] 	0.2711485804871
scalar tree_4_3_u10_r1_network.node[20].content_store 	hits[20] 	3763
scalar tree_4_3_u10_r1_network.node[20].content_store 	misses[20] 	10115
scalar tree_4_3_u10_r1_network.node[20].content_store 	decision_yes[20] 	10114
scalar tree_4_3_u10_r1_network.node[20].content_store 	decision_no[20] 	0
scalar tree_4_3_u10_r1_network.node[20].content_store 	decision_ratio[20] 	1
scalar tree_4_3_u10_r1_network.node[21].core_layer 	interests[21] 	12451
scalar tree_4_3_u10_r1_network.node[21].core_layer 	data[21] 	10010
scalar tree_4_3_u10_r1_network.node[21].content_store 	p_hit[21] 	0.19604851015983
scalar tree_4_3_u10_r1_network.node[21].content_store 	hits[21] 	2441
scalar tree_4_3_u10_r1_network.node[21].content_store 	misses[21] 	10010
scalar tree_4_3_u10_r1_network.node[21].content_store 	decision_yes[21] 	10010
scalar tree_4_3_u10_r1_network.node[21].content_store 	decision_no[21] 	0
scalar tree_4_3_u10_r1_network.node[21].content_store 	decision_ratio[21] 	1
scalar tree_4_3_u10_r1_network.node[22].core_layer 	interests[22] 	13467
scalar tree_4_3_u10_r1_network.node[22].core_layer 	data[22] 	10108
scalar tree_4_3_u10_r1_network.node[22].content_store 	p_hit[22] 	0.2492760080196
scalar tree_4_3_u10_r1_network.node[22].content_store 	hits[22] 	3357
scalar tree_4_3_u10_r1_network.node[22].content_store 	misses[22] 	10110
scalar tree_4_3_u10_r1_network.node[22].content_store 	decision_yes[22] 	10108
scalar tree_4_3_u10_r1_network.node[22].content_store 	decision_no[22] 	0
scalar tree_4_3_u10_r1_network.node[22].content_store 	decision_ratio[22] 	1
scalar tree_4_3_u10_r1_network.node[23].core_layer 	interests[23] 	14344
scalar tree_4_3_u10_r1_network.node[23].core_layer 	data[23] 	10202
scalar tree_4_3_u10_r1_network.node[23].content_store 	p_hit[23] 	0.28862242052426
scalar tree_4_3_u10_r1_network.node[23].content_store 	hits[23] 	4140
scalar tree_4_3_u10_r1_network.node[23].content_store 	misses[23] 	10204
scalar tree_4_3_u10_r1_network.node[23].content_store 	decision_yes[23] 	10202
scalar tree_4_3_u10_r1_network.node[23].content_store 	decision_no[23] 	0
scalar tree_4_3_u10_r1_network.node[23].content_store 	decision_ratio[23] 	1
scalar tree_4_3_u10_r1_network.node[24].core_layer 	interests[24] 	14188
scalar tree_4_3_u10_r1_network.node[24].core_layer 	data[24] 	9969
scalar tree_4_3_u10_r1_network.node[24].content_store 	p_hit[24] 	0.29736396955173
scalar tree_4_3_u10_r1_network.node[24].content_store 	hits[24] 	4219
scalar tree_4_3_u10_r1_network.node[24].content_store 	misses[24] 	9969
scalar tree_4_3_u10_r1_network.node[24].content_store 	decision_yes[24] 	9969
scalar tree_4_3_u10_r1_network.node[24].content_store 	decision_no[24] 	0
scalar tree_4_3_u10_r1_network.node[24].content_store 	decision_ratio[24] 	1
scalar tree_4_3_u10_r1_network.node[25].core_layer 	interests[25] 	13985
scalar tree_4_3_u10_r1_network.node[25].core_layer 	data[25] 	10005
scalar tree_4_3_u10_r1_network.node[25].content_store 	p_hit[25] 	0.28459063282088
scalar tree_4_3_u10_r1_network.node[25].content_store 	hits[25] 	3980
scalar tree_4_3_u10_r1_network.node[25].content_store 	misses[25] 	10005
scalar tree_4_3_u10_r1_network.node[25].content_store 	decision_yes[25] 	10005
scalar tree_4_3_u10_r1_network.node[25].content_store 	decision_no[25] 	0
scalar tree_4_3_u10_r1_network.node[25].content_store 	decision_ratio[25] 	1
scalar tree_4_3_u10_r1_network.node[26].core_layer 	interests[26] 	12900
scalar tree_4_3_u10_r1_network.node[26].core_layer 	data[26] 	9992
scalar tree_4_3_u10_r1_network.node[26].content_store 	p_hit[26] 	0.22542635658915
scalar tree_4_3_u10_r1_network.node[26].content_store 	hits[26] 	2908
scalar tree_4_3_u10_r1_network.node[26].content_store 	misses[26] 	9992
scalar tree_4_3_u10_r1_network.node[26].content_store 	decision_yes[26] 	9992
scalar tree_4_3_u10_r1_network.node[26].content_store 	decision_no[26] 	0
scalar tree_4_3_u10_r1_network.node[26].content_store 	decision_ratio[26] 	1
scalar tree_4_3_u10_r1_network.node[27].core_layer 	interests[27] 	13591
scalar tree_4_3_u10_r1_network.node[27].core_layer 	data[27] 	9957
scalar tree_4_3_u10_r1_network.node[27].content_store 	p_hit[27] 	0.26723567066441
scalar tree_4_3_u10_r1_network.node[27].content_store 	hits[27] 	3632
scalar tree_4_3_u10_r1_network.node[27].content_store 	misses[27] 	9959
scalar tree_4_3_u10_r1_network.node[27].content_store 	decision_yes[27] 	9957
scalar tree_4_3_u10_r1_network.node[27].content_store 	decision_no[27] 	0
scalar tree_4_3_u10_r1_network.node[27].content_store 	decision_ratio[27] 	1
scalar tree_4_3_u10_r1_network.node[28].core_layer 	interests[28] 	14072
scalar tree_4_3_u10_r1_network.node[28].core_layer 	data[28] 	9965
scalar tree_4_3_u10_r1_network.node[28].content_store 	p_hit[28] 	0.29178510517339
scalar tree_4_3_u10_r1_network.node[28].content_store 	hits[28] 	4106
scalar tree_4_3_u10_r1_network.node[28].content_store 	misses[28] 	9966
scalar tree_4_3_u10_r1_network.node[28].content_store 	decision_yes[28] 	9965
scalar tree_4_3_u10_r1_network.node[28].content_store 	decision_no[28] 	0
scalar tree_4_3_u10_r1_network.node[28].content_store 	decision_ratio[28] 	1
scalar tree_4_3_u10_r1_network.node[29].core_layer 	interests[29] 	13967
scalar tree_4_3_u10_r1_network.node[29].core_layer 	data[29] 	10215
scalar tree_4_3_u10_r1_network.node[29].content_store 	p_hit[29] 	0.26863320684471
scalar tree_4_3_u10_r1_network.node[29].content_store 	hits[29] 	3752
scalar tree_4_3_u10_r1_network.node[29].content_store 	misses[29] 	10215
scalar tree_4_3_u10_r1_network.node[29].content_store 	decision_yes[29] 	10215
scalar tree_4_3_u10_r1_network.node[29].content_store 	decision_no[29] 	0
scalar tree_4_3_u10_r1_network.node[29].content_store 	decision_ratio[29] 	1
scalar tree_4_3_u10_r1_network.node[30].core_layer 	interests[30] 	12390
scalar tree_4_3_u10_r1_network.node[30].core_layer 	data[30] 	9995
scalar tree_4_3_u10_r1_network.node[30].content_store 	p_hit[30] 	0.19322033898305
scalar tree_4_3_u10_r1_network.node[30].content_store 	hits[30] 	2394
scalar tree_4_3_u10_r1_network.node[30].content_store 	misses[30] 	9996
scalar tree_4_3_u10_r1_network.node[30].content_store 	decision_yes[30] 	9995
scalar tree_4_3_u10_r1_network.node[30].content_store 	decision_no[30] 	0
scalar tree_4_3_u10_r1_network.node[30].content_store 	decision_ratio[30] 	1
scalar tree_4_3_u10_r1_network.node[31].core_layer 	interests[31] 	13380
scalar tree_4_3_u10_r1_network.node[31].core_layer 	data[31] 	10065
scalar tree_4_3_u10_r1_network.node[31].content_store 	p_hit[31] 	0.24775784753363
scalar tree_4_3_u10_r1_network.node[31].content_store 	hits[31] 	3315
scalar tree_4_3_u10_r1_network.node[31].content_store 	misses[31] 	10065
scalar tree_4_3_u10_r1_network.node[31].content_store 	decision_yes[31] 	10065
scalar tree_4_3_u10_r1_network.node[31].content_store 	decision_no[31] 	0
scalar tree_4_3_u10_r1_network.node[31].content_store 	decision_ratio[31] 	1
scalar tree_4_3_u10_r1_network.node[32].core_layer 	interests[32] 	14117
scalar tree_4_3_u10_r1_network.node[32].core_layer 	data[32] 	10033
scalar tree_4_3_u10_r1_network.node[32].content_store 	p_hit[32] 	0.2892965927605
scalar tree_4_3_u10_r1_network.node[32].content_store 	hits[32] 	4084
scalar tree_4_3_u10_r1_network.node[32].content_store 	misses[32] 	10033
scalar tree_4_3_u10_r1_network.node[32].content_store 	decision_yes[32] 	10033
scalar tree_4_3_u10_r1_network.node[32].content_store 	decision_no[32] 	0
scalar tree_4_3_u10_r1_network.node[32].content_store 	decision_ratio[32] 	1
scalar tree_4_3_u10_r1_network.node[33].core_layer 	interests[33] 	14050
scalar tree_4_3_u10_r1_network.node[33].core_layer 	data[33] 	10100
scalar tree_4_3_u10_r1_network.node[33].content_store 	p_hit[33] 	0.28113879003559
scalar tree_4_3_u10_r1_network.node[33].content_store 	hits[33] 	3950
scalar tree_4_3_u10_r1_network.node[33].content_store 	misses[33] 	10100
scalar tree_4_3_u10_r1_network.node[33].content_store 	decision_yes[33] 	10100
scalar tree_4_3_u10_r1_network.node[33].content_store 	decision_no[33] 	0
scalar tree_4_3_u10_r1_network.node[33].content_store 	decision_ratio[33] 	1
scalar tree_4_3_u10_r1_network.node[34].core_layer 	interests[34] 	14222
scalar tree_4_3_u10_r1_network.node[34].core_layer 	data[34] 	10056
scalar tree_4_3_u10_r1_network.node[34].content_store 	p_hit[34] 	0.29292645197581
scalar tree_4_3_u10_r1_network.node[34].content_store 	hits[34] 	4166
scalar tree_4_3_u10_r1_network.node[34].content_store 	misses[34] 	10056
scalar tree_4_3_u10_r1_network.node[34].content_store 	decision_yes[34] 	10056
scalar tree_4_3_u10_r1_network.node[34].content_store 	decision_no[34] 	0
scalar tree_4_3_u10_r1_network.node[34].content_store 	decision_ratio[34] 	1
scalar tree_4_3_u10_r1_network.node[35].core_layer 	interests[35] 	13053
scalar tree_4_3_u10_r1_network.node[35].core_layer 	data[35] 	9941
scalar tree_4_3_u10_r1_network.node[35].content_store 	p_hit[35] 	0.23841262545009
scalar tree_4_3_u10_r1_network.node[35].content_store 	hits[35] 	3112
scalar tree_4_3_u10_r1_network.node[35].content_store 	misses[35] 	9941
scalar tree_4_3_u10_r1_network.node[35].content_store 	decision_yes[35] 	9941
scalar tree_4_3_u10_r1_network.node[35].content_store 	decision_no[35] 	0
scalar tree_4_3_u10_r1_network.node[35].content_store 	decision_ratio[35] 	1
scalar tree_4_3_u10_r1_network.node[36].core_layer 	interests[36] 	13947
scalar tree_4_3_u10_r1_network.node[36].core_layer 	data[36] 	10185
scalar tree_4_3_u10_r1_network.node[36].content_store 	p_hit[36] 	0.26966372696637
scalar tree_4_3_u10_r1_network.node[36].content_store 	hits[36] 	3761
scalar tree_4_3_u10_r1_network.node[36].content_store 	misses[36] 	10186
scalar tree_4_3_u10_r1_network.node[36].content_store 	decision_yes[36] 	10185
scalar tree_4_3_u10_r1_network.node[36].content_store 	decision_no[36] 	0
scalar tree_4_3_u10_r1_network.node[36].content_store 	decision_ratio[36] 	1
scalar tree_4_3_u10_r1_network.node[37].core_layer 	interests[37] 	13726
scalar tree_4_3_u10_r1_network.node[37].core_layer 	data[37] 	9866
scalar tree_4_3_u10_r1_network.node[37].content_store 	p_hit[37] 	0.28114527174705
scalar tree_4_3_u10_r1_network.node[37].content_store 	hits[37] 	3859
scalar tree_4_3_u10_r1_network.node[37].content_store 	misses[37] 	9867
scalar tree_4_3_u10_r1_network.node[37].content_store 	decision_yes[37] 	9866
scalar tree_4_3_u10_r1_network.node[37].content_store 	decision_no[37] 	0
scalar tree_4_3_u10_r1_network.node[37].content_store 	decision_ratio[37] 	1
scalar tree_4_3_u10_r1_network.node[38].core_layer 	interests[38] 	13892
scalar tree_4_3_u10_r1_network.node[38].core_layer 	data[38] 	10138
scalar tree_4_3_u10_r1_network.node[38].content_store 	p_hit[38] 	0.27022746904693
scalar tree_4_3_u10_r1_network.node[38].content_store 	hits[38] 	3754
scalar tree_4_3_u10_r1_network.node[38].content_store 	misses[38] 	10138
scalar tree_4_3_u10_r1_network.node[38].content_store 	decision_yes[38] 	10138
scalar tree_4_3_u10_r1_network.node[38].content_store 	decision_no[38] 	0
scalar tree_4_3_u10_r1_network.node[38].content_store 	decision_ratio[38] 	1
scalar tree_4_3_u10_r1_network.node[39].core_layer 	interests[39] 	12300
scalar tree_4_3_u10_r1_network.node[39].core_layer 	data[39] 	10042
scalar tree_4_3_u10_r1_network.node[39].content_store 	p_hit[39] 	0.18349593495935
scalar tree_4_3_u10_r1_network.node[39].content_store 	hits[39] 	2257
scalar tree_4_3_u10_r1_network.node[39].content_store 	misses[39] 	10043
scalar tree_4_3_u10_r1_network.node[39].content_store 	decision_yes[39] 	10042
scalar tree_4_3_u10_r1_network.node[39].content_store 	decision_no[39] 	0
scalar tree_4_3_u10_r1_network.node[39].content_store 	decision_ratio[39] 	1
scalar tree_4_3_u10_r1_network.client[13] 	hdistance[13] 	3.0915640445673
scalar tree_4_3_u10_r1_network.client[13] 	downloads[13] 	11937
scalar tree_4_3_u10_r1_network.client[13] 	avg_time[13] 	0.004934231306
scalar tree_4_3_u10_r1_network.client[14] 	hdistance[14] 	2.9482672442519
scalar tree_4_3_u10_r1_network.client[14] 	downloads[14] 	12004
scalar tree_4_3_u10_r1_network.client[14] 	avg_time[14] 	0.00470443221
scalar tree_4_3_u10_r1_network.client[15] 	hdistance[15] 	2.9298361740857
scalar tree_4_3_u10_r1_network.client[15] 	downloads[15] 	12086
scalar tree_4_3_u10_r1_network.client[15] 	avg_time[15] 	0.004665258087
scalar tree_4_3_u10_r1_network.client[16] 	hdistance[16] 	2.9806185219516
scalar tree_4_3_u10_r1_network.client[16] 	downloads[16] 	11867
scalar tree_4_3_u10_r1_network.client[16] 	avg_time[16] 	0.004754587786
scalar tree_4_3_u10_r1_network.client[17] 	hdistance[17] 	3.038694677406
scalar tree_4_3_u10_r1_network.client[17] 	downloads[17] 	12043
scalar tree_4_3_u10_r1_network.client[17] 	avg_time[17] 	0.00488897814
scalar tree_4_3_u10_r1_network.client[18] 	hdistance[18] 	2.9261222461488
scalar tree_4_3_u10_r1_network.client[18] 	downloads[18] 	12074
scalar tree_4_3_u10_r1_network.client[18] 	avg_time[18] 	0.004665062429
scalar tree_4_3_u10_r1_network.client[19] 	hdistance[19] 	2.9392385914783
scalar tree_4_3_u10_r1_network.client[19] 	downloads[19] 	11899
scalar tree_4_3_u10_r1_network.client[19] 	avg_time[19] 	0.004686889
scalar tree_4_3_u10_r1_network.client[20] 	hdistance[20] 	2.9587999331439
scalar tree_4_3_u10_r1_network.client[20] 	downloads[20] 	11966
scalar tree_4_3_u10_r1_network.client[20] 	avg_time[20] 	0.004702932406
scalar tree_4_3_u10_r1_network.client[21] 	hdistance[21] 	3.0078144693723
scalar tree_4_3_u10_r1_network.client[21] 	downloads[21] 	11901
scalar tree_4_3_u10_r1_network.client[21] 	avg_time[21] 	0.004830700478
scalar tree_4_3_u10_r1_network.client[22] 	hdistance[22] 	3.0337854705833
scalar tree_4_3_u10_r1_network.client[22] 	downloads[22] 	12017
scalar tree_4_3_u10_r1_network.client[22] 	avg_time[22] 	0.004871335895
scalar tree_4_3_u10_r1_network.client[23] 	hdistance[23] 	2.9750020625361
scalar tree_4_3_u10_r1_network.client[23] 	downloads[23] 	12121
scalar tree_4_3_u10_r1_network.client[23] 	avg_time[23] 	0.004748515375
scalar tree_4_3_u10_r1_network.client[24] 	hdistance[24] 	2.9092125062699
scalar tree_4_3_u10_r1_network.client[24] 	downloads[24] 	11962
scalar tree_4_3_u10_r1_network.client[24] 	avg_time[24] 	0.004637766918
scalar tree_4_3_u10_r1_network.client[25] 	hdistance[25] 	2.9599530831099
scalar tree_4_3_u10_r1_network.client[25] 	downloads[25] 	11936
scalar tree_4_3_u10_r1_network.client[25] 	avg_time[25] 	0.004719172579
scalar tree_4_3_u10_r1_network.client[26] 	hdistance[26] 	3.055602006689
scalar tree_4_3_u10_r1_network.client[26] 	downloads[26] 	11960
scalar tree_4_3_u10_r1_network.client[26] 	avg_time[26] 	0.00487023114
scalar tree_4_3_u10_r1_network.client[27] 	hdistance[27] 	2.9700741751215
scalar tree_4_3_u10_r1_network.client[27] 	downloads[27] 	11729
scalar tree_4_3_u10_r1_network.client[27] 	avg_time[27] 	0.004734874724
scalar tree_4_3_u10_r1_network.client[28] 	hdistance[28] 	2.9265746042439
scalar tree_4_3_u10_r1_network.client[28] 	downloads[28] 	11876
scalar tree_4_3_u10_r1_network.client[28] 	avg_time[28] 	0.004662473882
scalar tree_4_3_u10_r1_network.client[29] 	hdistance[29] 	2.9387017255546
scalar tree_4_3_u10_r1_network.client[29] 	downloads[29] 	12170
scalar tree_4_3_u10_r1_network.client[29] 	avg_time[29] 	0.004691800414
scalar tree_4_3_u10_r1_network.client[30] 	hdistance[30] 	3.0222768084025
scalar tree_4_3_u10_r1_network.client[30] 	downloads[30] 	11806
scalar tree_4_3_u10_r1_network.client[30] 	avg_time[30] 	0.00485210514
scalar tree_4_3_u10_r1_network.client[31] 	hdistance[31] 	2.9992512479201
scalar tree_4_3_u10_r1_network.client[31] 	downloads[31] 	12020
scalar tree_4_3_u10_r1_network.client[31] 	avg_time[31] 	0.004818798997
scalar tree_4_3_u10_r1_network.client[32] 	hdistance[32] 	2.9541876046901
scalar tree_4_3_u10_r1_network.client[32] 	downloads[32] 	11940
scalar tree_4_3_u10_r1_network.client[32] 	avg_time[32] 	0.004716933876
scalar tree_4_3_u10_r1_network.client[33] 	hdistance[33] 	2.952079339945
scalar tree_4_3_u10_r1_network.client[33] 	downloads[33] 	11999
scalar tree_4_3_u10_r1_network.client[33] 	avg_time[33] 	0.004715039294
scalar tree_4_3_u10_r1_network.client[34] 	hdistance[34] 	2.9490609938508
scalar tree_4_3_u10_r1_network.client[34] 	downloads[34] 	12034
scalar tree_4_3_u10_r1_network.client[34] 	avg_time[34] 	0.004695420736
scalar tree_4_3_u10_r1_network.client[35] 	hdistance[35] 	3.0063019914293
scalar tree_4_3_u10_r1_network.client[35] 	downloads[35] 	11901
scalar tree_4_3_u10_r1_network.client[35] 	avg_time[35] 	0.004823457244
scalar tree_4_3_u10_r1_network.client[36] 	hdistance[36] 	2.9448611225583
scalar tree_4_3_u10_r1_network.client[36] 	downloads[36] 	12133
scalar tree_4_3_u10_r1_network.client[36] 	avg_time[36] 	0.004699703753
scalar tree_4_3_u10_r1_network.client[37] 	hdistance[37] 	2.9430638297872
scalar tree_4_3_u10_r1_network.client[37] 	downloads[37] 	11750
scalar tree_4_3_u10_r1_network.client[37] 	avg_time[37] 	0.004688330486
scalar tree_4_3_u10_r1_network.client[38] 	hdistance[38] 	2.9362599206349
scalar tree_4_3_u10_r1_network.client[38] 	downloads[38] 	12096
scalar tree_4_3_u10_r1_network.client[38] 	avg_time[38] 	0.004683363388
scalar tree_4_3_u10_r1_network.client[39] 	hdistance[39] 	3.0265944143393
scalar tree_4_3_u10_r1_network.client[39] 	downloads[39] 	11995
scalar tree_4_3_u10_r1_network.client[39] 	avg_time[39] 	0.004816913356
