version 2
run General-219-20160819-18:33:27-23511
attr a 0.9
attr cd lce
attr configname General
attr cr lru
attr datetime 20160819-18:33:27
attr experiment General
attr fsize 1
attr inifile hw5115/scenario_A/NRR-LCE.ini
attr iterationvars "$name=tree_4_3, $un=10, $rep=20, $cd=lce, $cr=lru, $fsize=1, $a=0.9, $sl=nrr, $ttl=1000, $variance=0.05"
attr iterationvars2 "$name=tree_4_3, $un=10, $rep=20, $cd=lce, $cr=lru, $fsize=1, $a=0.9, $sl=nrr, $ttl=1000, $variance=0.05, $repetition=0"
attr measurement "$name=tree_4_3, $un=10, $rep=20, $cd=lce, $cr=lru, $fsize=1, $a=0.9, $sl=nrr, $ttl=1000, $variance=0.05"
attr name tree_4_3
attr network networks.${name}_u${un}_r${rep}_network
attr processid 23511
attr rep 20
attr repetition 0
attr replication #0
attr resultdir results
attr runnumber 219
attr seedset 20
attr sl nrr
attr ttl 1000
attr un 10
attr variance 0.05

scalar . 	a 	0.9
scalar . 	fsize 	1
scalar . 	rep 	20
scalar . 	ttl 	1000
scalar . 	un 	10
scalar . 	variance 	0.05
scalar tree_4_3_u10_r20_network.content_distribution 	repo-0 	0
scalar tree_4_3_u10_r20_network.content_distribution 	client-0 	13
scalar tree_4_3_u10_r20_network.content_distribution 	client-1 	14
scalar tree_4_3_u10_r20_network.content_distribution 	client-2 	15
scalar tree_4_3_u10_r20_network.content_distribution 	client-3 	16
scalar tree_4_3_u10_r20_network.content_distribution 	client-4 	17
scalar tree_4_3_u10_r20_network.content_distribution 	client-5 	18
scalar tree_4_3_u10_r20_network.content_distribution 	client-6 	19
scalar tree_4_3_u10_r20_network.content_distribution 	client-7 	20
scalar tree_4_3_u10_r20_network.content_distribution 	client-8 	21
scalar tree_4_3_u10_r20_network.content_distribution 	client-9 	22
scalar tree_4_3_u10_r20_network.content_distribution 	client-10 	23
scalar tree_4_3_u10_r20_network.content_distribution 	client-11 	24
scalar tree_4_3_u10_r20_network.content_distribution 	client-12 	25
scalar tree_4_3_u10_r20_network.content_distribution 	client-13 	26
scalar tree_4_3_u10_r20_network.content_distribution 	client-14 	27
scalar tree_4_3_u10_r20_network.content_distribution 	client-15 	28
scalar tree_4_3_u10_r20_network.content_distribution 	client-16 	29
scalar tree_4_3_u10_r20_network.content_distribution 	client-17 	30
scalar tree_4_3_u10_r20_network.content_distribution 	client-18 	31
scalar tree_4_3_u10_r20_network.content_distribution 	client-19 	32
scalar tree_4_3_u10_r20_network.content_distribution 	client-20 	33
scalar tree_4_3_u10_r20_network.content_distribution 	client-21 	34
scalar tree_4_3_u10_r20_network.content_distribution 	client-22 	35
scalar tree_4_3_u10_r20_network.content_distribution 	client-23 	36
scalar tree_4_3_u10_r20_network.content_distribution 	client-24 	37
scalar tree_4_3_u10_r20_network.content_distribution 	client-25 	38
scalar tree_4_3_u10_r20_network.content_distribution 	client-26 	39
scalar tree_4_3_u10_r20_network.content_distribution 	repo-0_card 	100000
scalar tree_4_3_u10_r20_network.content_distribution 	repo-0_price 	0
scalar tree_4_3_u10_r20_network.statistics 	stabilization_time 	477.4
scalar tree_4_3_u10_r20_network.statistics 	p_hit 	0.20938773565053
scalar tree_4_3_u10_r20_network.statistics 	interests 	27334.45
scalar tree_4_3_u10_r20_network.statistics 	data 	19232.525
scalar tree_4_3_u10_r20_network.statistics 	hdistance 	2.9727627014828
scalar tree_4_3_u10_r20_network.statistics 	avg_time 	0.004747472458
scalar tree_4_3_u10_r20_network.statistics 	downloads 	324062
scalar tree_4_3_u10_r20_network.statistics 	total_cost 	0
scalar tree_4_3_u10_r20_network.statistics 	total_replicas 	100000
scalar tree_4_3_u10_r20_network.statistics 	inner_hit 	0.40089242182052
scalar tree_4_3_u10_r20_network.node[0].core_layer 	interests[0] 	194499
scalar tree_4_3_u10_r20_network.node[0].core_layer 	repo_load[0] 	194148
scalar tree_4_3_u10_r20_network.node[0].core_layer 	data[0] 	0
scalar tree_4_3_u10_r20_network.node[0].core_layer 	repo_int[0] 	194148
scalar tree_4_3_u10_r20_network.node[0].content_store 	p_hit[0] 	0.0018046365276942
scalar tree_4_3_u10_r20_network.node[0].content_store 	hits[0] 	351
scalar tree_4_3_u10_r20_network.node[0].content_store 	misses[0] 	194148
scalar tree_4_3_u10_r20_network.node[0].content_store 	decision_yes[0] 	194148
scalar tree_4_3_u10_r20_network.node[0].content_store 	decision_no[0] 	0
scalar tree_4_3_u10_r20_network.node[0].content_store 	decision_ratio[0] 	1
scalar tree_4_3_u10_r20_network.node[1].core_layer 	interests[1] 	151190
scalar tree_4_3_u10_r20_network.node[1].core_layer 	data[1] 	150042
scalar tree_4_3_u10_r20_network.node[1].content_store 	p_hit[1] 	0.0075732521992195
scalar tree_4_3_u10_r20_network.node[1].content_store 	hits[1] 	1145
scalar tree_4_3_u10_r20_network.node[1].content_store 	misses[1] 	150045
scalar tree_4_3_u10_r20_network.node[1].content_store 	decision_yes[1] 	150017
scalar tree_4_3_u10_r20_network.node[1].content_store 	decision_no[1] 	0
scalar tree_4_3_u10_r20_network.node[1].content_store 	decision_ratio[1] 	1
scalar tree_4_3_u10_r20_network.node[2].core_layer 	interests[2] 	60982
scalar tree_4_3_u10_r20_network.node[2].core_layer 	data[2] 	59509
scalar tree_4_3_u10_r20_network.node[2].content_store 	p_hit[2] 	0.024171066872192
scalar tree_4_3_u10_r20_network.node[2].content_store 	hits[2] 	1474
scalar tree_4_3_u10_r20_network.node[2].content_store 	misses[2] 	59508
scalar tree_4_3_u10_r20_network.node[2].content_store 	decision_yes[2] 	59501
scalar tree_4_3_u10_r20_network.node[2].content_store 	decision_no[2] 	0
scalar tree_4_3_u10_r20_network.node[2].content_store 	decision_ratio[2] 	1
scalar tree_4_3_u10_r20_network.node[3].core_layer 	interests[3] 	16752
scalar tree_4_3_u10_r20_network.node[3].core_layer 	data[3] 	13488
scalar tree_4_3_u10_r20_network.node[3].content_store 	p_hit[3] 	0.19478271251194
scalar tree_4_3_u10_r20_network.node[3].content_store 	hits[3] 	3263
scalar tree_4_3_u10_r20_network.node[3].content_store 	misses[3] 	13489
scalar tree_4_3_u10_r20_network.node[3].content_store 	decision_yes[3] 	13488
scalar tree_4_3_u10_r20_network.node[3].content_store 	decision_no[3] 	0
scalar tree_4_3_u10_r20_network.node[3].content_store 	decision_ratio[3] 	1
scalar tree_4_3_u10_r20_network.node[4].core_layer 	interests[4] 	47245
scalar tree_4_3_u10_r20_network.node[4].core_layer 	data[4] 	45588
scalar tree_4_3_u10_r20_network.node[4].content_store 	p_hit[4] 	0.035051328182876
scalar tree_4_3_u10_r20_network.node[4].content_store 	hits[4] 	1656
scalar tree_4_3_u10_r20_network.node[4].content_store 	misses[4] 	45589
scalar tree_4_3_u10_r20_network.node[4].content_store 	decision_yes[4] 	45582
scalar tree_4_3_u10_r20_network.node[4].content_store 	decision_no[4] 	0
scalar tree_4_3_u10_r20_network.node[4].content_store 	decision_ratio[4] 	1
scalar tree_4_3_u10_r20_network.node[5].core_layer 	interests[5] 	34954
scalar tree_4_3_u10_r20_network.node[5].core_layer 	data[5] 	31880
scalar tree_4_3_u10_r20_network.node[5].content_store 	p_hit[5] 	0.087886937117354
scalar tree_4_3_u10_r20_network.node[5].content_store 	hits[5] 	3072
scalar tree_4_3_u10_r20_network.node[5].content_store 	misses[5] 	31882
scalar tree_4_3_u10_r20_network.node[5].content_store 	decision_yes[5] 	31877
scalar tree_4_3_u10_r20_network.node[5].content_store 	decision_no[5] 	0
scalar tree_4_3_u10_r20_network.node[5].content_store 	decision_ratio[5] 	1
scalar tree_4_3_u10_r20_network.node[6].core_layer 	interests[6] 	18558
scalar tree_4_3_u10_r20_network.node[6].core_layer 	data[6] 	13816
scalar tree_4_3_u10_r20_network.node[6].content_store 	p_hit[6] 	0.2555232244854
scalar tree_4_3_u10_r20_network.node[6].content_store 	hits[6] 	4742
scalar tree_4_3_u10_r20_network.node[6].content_store 	misses[6] 	13816
scalar tree_4_3_u10_r20_network.node[6].content_store 	decision_yes[6] 	13816
scalar tree_4_3_u10_r20_network.node[6].content_store 	decision_no[6] 	0
scalar tree_4_3_u10_r20_network.node[6].content_store 	decision_ratio[6] 	1
scalar tree_4_3_u10_r20_network.node[7].core_layer 	interests[7] 	51133
scalar tree_4_3_u10_r20_network.node[7].core_layer 	data[7] 	48733
scalar tree_4_3_u10_r20_network.node[7].content_store 	p_hit[7] 	0.046897307022862
scalar tree_4_3_u10_r20_network.node[7].content_store 	hits[7] 	2398
scalar tree_4_3_u10_r20_network.node[7].content_store 	misses[7] 	48735
scalar tree_4_3_u10_r20_network.node[7].content_store 	decision_yes[7] 	48721
scalar tree_4_3_u10_r20_network.node[7].content_store 	decision_no[7] 	0
scalar tree_4_3_u10_r20_network.node[7].content_store 	decision_ratio[7] 	1
scalar tree_4_3_u10_r20_network.node[8].core_layer 	interests[8] 	30395
scalar tree_4_3_u10_r20_network.node[8].core_layer 	data[8] 	28544
scalar tree_4_3_u10_r20_network.node[8].content_store 	p_hit[8] 	0.060898174041783
scalar tree_4_3_u10_r20_network.node[8].content_store 	hits[8] 	1851
scalar tree_4_3_u10_r20_network.node[8].content_store 	misses[8] 	28544
scalar tree_4_3_u10_r20_network.node[8].content_store 	decision_yes[8] 	28541
scalar tree_4_3_u10_r20_network.node[8].content_store 	decision_no[8] 	0
scalar tree_4_3_u10_r20_network.node[8].content_store 	decision_ratio[8] 	1
scalar tree_4_3_u10_r20_network.node[9].core_layer 	interests[9] 	18534
scalar tree_4_3_u10_r20_network.node[9].core_layer 	data[9] 	14057
scalar tree_4_3_u10_r20_network.node[9].content_store 	p_hit[9] 	0.24150210424085
scalar tree_4_3_u10_r20_network.node[9].content_store 	hits[9] 	4476
scalar tree_4_3_u10_r20_network.node[9].content_store 	misses[9] 	14058
scalar tree_4_3_u10_r20_network.node[9].content_store 	decision_yes[9] 	14055
scalar tree_4_3_u10_r20_network.node[9].content_store 	decision_no[9] 	0
scalar tree_4_3_u10_r20_network.node[9].content_store 	decision_ratio[9] 	1
scalar tree_4_3_u10_r20_network.node[10].core_layer 	interests[10] 	51560
scalar tree_4_3_u10_r20_network.node[10].core_layer 	data[10] 	49213
scalar tree_4_3_u10_r20_network.node[10].content_store 	p_hit[10] 	0.045519782777347
scalar tree_4_3_u10_r20_network.node[10].content_store 	hits[10] 	2347
scalar tree_4_3_u10_r20_network.node[10].content_store 	misses[10] 	49213
scalar tree_4_3_u10_r20_network.node[10].content_store 	decision_yes[10] 	49210
scalar tree_4_3_u10_r20_network.node[10].content_store 	decision_no[10] 	0
scalar tree_4_3_u10_r20_network.node[10].content_store 	decision_ratio[10] 	1
scalar tree_4_3_u10_r20_network.node[11].core_layer 	interests[11] 	33816
scalar tree_4_3_u10_r20_network.node[11].core_layer 	data[11] 	31179
scalar tree_4_3_u10_r20_network.node[11].content_store 	p_hit[11] 	0.077951265673054
scalar tree_4_3_u10_r20_network.node[11].content_store 	hits[11] 	2636
scalar tree_4_3_u10_r20_network.node[11].content_store 	misses[11] 	31180
scalar tree_4_3_u10_r20_network.node[11].content_store 	decision_yes[11] 	31175
scalar tree_4_3_u10_r20_network.node[11].content_store 	decision_no[11] 	0
scalar tree_4_3_u10_r20_network.node[11].content_store 	decision_ratio[11] 	1
scalar tree_4_3_u10_r20_network.node[12].core_layer 	interests[12] 	14434
scalar tree_4_3_u10_r20_network.node[12].core_layer 	data[12] 	11163
scalar tree_4_3_u10_r20_network.node[12].content_store 	p_hit[12] 	0.226617708189
scalar tree_4_3_u10_r20_network.node[12].content_store 	hits[12] 	3271
scalar tree_4_3_u10_r20_network.node[12].content_store 	misses[12] 	11163
scalar tree_4_3_u10_r20_network.node[12].content_store 	decision_yes[12] 	11163
scalar tree_4_3_u10_r20_network.node[12].content_store 	decision_no[12] 	0
scalar tree_4_3_u10_r20_network.node[12].content_store 	decision_ratio[12] 	1
scalar tree_4_3_u10_r20_network.node[13].core_layer 	interests[13] 	13111
scalar tree_4_3_u10_r20_network.node[13].core_layer 	data[13] 	10001
scalar tree_4_3_u10_r20_network.node[13].content_store 	p_hit[13] 	0.23712912821295
scalar tree_4_3_u10_r20_network.node[13].content_store 	hits[13] 	3109
scalar tree_4_3_u10_r20_network.node[13].content_store 	misses[13] 	10002
scalar tree_4_3_u10_r20_network.node[13].content_store 	decision_yes[13] 	10001
scalar tree_4_3_u10_r20_network.node[13].content_store 	decision_no[13] 	0
scalar tree_4_3_u10_r20_network.node[13].content_store 	decision_ratio[13] 	1
scalar tree_4_3_u10_r20_network.node[14].core_layer 	interests[14] 	14238
scalar tree_4_3_u10_r20_network.node[14].core_layer 	data[14] 	10161
scalar tree_4_3_u10_r20_network.node[14].content_store 	p_hit[14] 	0.28634639696587
scalar tree_4_3_u10_r20_network.node[14].content_store 	hits[14] 	4077
scalar tree_4_3_u10_r20_network.node[14].content_store 	misses[14] 	10161
scalar tree_4_3_u10_r20_network.node[14].content_store 	decision_yes[14] 	10161
scalar tree_4_3_u10_r20_network.node[14].content_store 	decision_no[14] 	0
scalar tree_4_3_u10_r20_network.node[14].content_store 	decision_ratio[14] 	1
scalar tree_4_3_u10_r20_network.node[15].core_layer 	interests[15] 	13680
scalar tree_4_3_u10_r20_network.node[15].core_layer 	data[15] 	9891
scalar tree_4_3_u10_r20_network.node[15].content_store 	p_hit[15] 	0.27697368421053
scalar tree_4_3_u10_r20_network.node[15].content_store 	hits[15] 	3789
scalar tree_4_3_u10_r20_network.node[15].content_store 	misses[15] 	9891
scalar tree_4_3_u10_r20_network.node[15].content_store 	decision_yes[15] 	9891
scalar tree_4_3_u10_r20_network.node[15].content_store 	decision_no[15] 	0
scalar tree_4_3_u10_r20_network.node[15].content_store 	decision_ratio[15] 	1
scalar tree_4_3_u10_r20_network.node[16].core_layer 	interests[16] 	14301
scalar tree_4_3_u10_r20_network.node[16].core_layer 	data[16] 	10213
scalar tree_4_3_u10_r20_network.node[16].content_store 	p_hit[16] 	0.28578421089434
scalar tree_4_3_u10_r20_network.node[16].content_store 	hits[16] 	4087
scalar tree_4_3_u10_r20_network.node[16].content_store 	misses[16] 	10214
scalar tree_4_3_u10_r20_network.node[16].content_store 	decision_yes[16] 	10213
scalar tree_4_3_u10_r20_network.node[16].content_store 	decision_no[16] 	0
scalar tree_4_3_u10_r20_network.node[16].content_store 	decision_ratio[16] 	1
scalar tree_4_3_u10_r20_network.node[17].core_layer 	interests[17] 	13250
scalar tree_4_3_u10_r20_network.node[17].core_layer 	data[17] 	10122
scalar tree_4_3_u10_r20_network.node[17].content_store 	p_hit[17] 	0.23607547169811
scalar tree_4_3_u10_r20_network.node[17].content_store 	hits[17] 	3128
scalar tree_4_3_u10_r20_network.node[17].content_store 	misses[17] 	10122
scalar tree_4_3_u10_r20_network.node[17].content_store 	decision_yes[17] 	10122
scalar tree_4_3_u10_r20_network.node[17].content_store 	decision_no[17] 	0
scalar tree_4_3_u10_r20_network.node[17].content_store 	decision_ratio[17] 	1
scalar tree_4_3_u10_r20_network.node[18].core_layer 	interests[18] 	13848
scalar tree_4_3_u10_r20_network.node[18].core_layer 	data[18] 	9884
scalar tree_4_3_u10_r20_network.node[18].content_store 	p_hit[18] 	0.28617850953206
scalar tree_4_3_u10_r20_network.node[18].content_store 	hits[18] 	3963
scalar tree_4_3_u10_r20_network.node[18].content_store 	misses[18] 	9885
scalar tree_4_3_u10_r20_network.node[18].content_store 	decision_yes[18] 	9884
scalar tree_4_3_u10_r20_network.node[18].content_store 	decision_no[18] 	0
scalar tree_4_3_u10_r20_network.node[18].content_store 	decision_ratio[18] 	1
scalar tree_4_3_u10_r20_network.node[19].core_layer 	interests[19] 	14010
scalar tree_4_3_u10_r20_network.node[19].core_layer 	data[19] 	10084
scalar tree_4_3_u10_r20_network.node[19].content_store 	p_hit[19] 	0.28008565310493
scalar tree_4_3_u10_r20_network.node[19].content_store 	hits[19] 	3924
scalar tree_4_3_u10_r20_network.node[19].content_store 	misses[19] 	10086
scalar tree_4_3_u10_r20_network.node[19].content_store 	decision_yes[19] 	10084
scalar tree_4_3_u10_r20_network.node[19].content_store 	decision_no[19] 	0
scalar tree_4_3_u10_r20_network.node[19].content_store 	decision_ratio[19] 	1
scalar tree_4_3_u10_r20_network.node[20].core_layer 	interests[20] 	14126
scalar tree_4_3_u10_r20_network.node[20].core_layer 	data[20] 	10175
scalar tree_4_3_u10_r20_network.node[20].content_store 	p_hit[20] 	0.27955542970409
scalar tree_4_3_u10_r20_network.node[20].content_store 	hits[20] 	3949
scalar tree_4_3_u10_r20_network.node[20].content_store 	misses[20] 	10177
scalar tree_4_3_u10_r20_network.node[20].content_store 	decision_yes[20] 	10175
scalar tree_4_3_u10_r20_network.node[20].content_store 	decision_no[20] 	0
scalar tree_4_3_u10_r20_network.node[20].content_store 	decision_ratio[20] 	1
scalar tree_4_3_u10_r20_network.node[21].core_layer 	interests[21] 	12516
scalar tree_4_3_u10_r20_network.node[21].core_layer 	data[21] 	10079
scalar tree_4_3_u10_r20_network.node[21].content_store 	p_hit[21] 	0.19479066794503
scalar tree_4_3_u10_r20_network.node[21].content_store 	hits[21] 	2438
scalar tree_4_3_u10_r20_network.node[21].content_store 	misses[21] 	10078
scalar tree_4_3_u10_r20_network.node[21].content_store 	decision_yes[21] 	10079
scalar tree_4_3_u10_r20_network.node[21].content_store 	decision_no[21] 	0
scalar tree_4_3_u10_r20_network.node[21].content_store 	decision_ratio[21] 	1
scalar tree_4_3_u10_r20_network.node[22].core_layer 	interests[22] 	13320
scalar tree_4_3_u10_r20_network.node[22].core_layer 	data[22] 	9984
scalar tree_4_3_u10_r20_network.node[22].content_store 	p_hit[22] 	0.25052552552553
scalar tree_4_3_u10_r20_network.node[22].content_store 	hits[22] 	3337
scalar tree_4_3_u10_r20_network.node[22].content_store 	misses[22] 	9983
scalar tree_4_3_u10_r20_network.node[22].content_store 	decision_yes[22] 	9984
scalar tree_4_3_u10_r20_network.node[22].content_store 	decision_no[22] 	0
scalar tree_4_3_u10_r20_network.node[22].content_store 	decision_ratio[22] 	1
scalar tree_4_3_u10_r20_network.node[23].core_layer 	interests[23] 	13912
scalar tree_4_3_u10_r20_network.node[23].core_layer 	data[23] 	9917
scalar tree_4_3_u10_r20_network.node[23].content_store 	p_hit[23] 	0.28716216216216
scalar tree_4_3_u10_r20_network.node[23].content_store 	hits[23] 	3995
scalar tree_4_3_u10_r20_network.node[23].content_store 	misses[23] 	9917
scalar tree_4_3_u10_r20_network.node[23].content_store 	decision_yes[23] 	9917
scalar tree_4_3_u10_r20_network.node[23].content_store 	decision_no[23] 	0
scalar tree_4_3_u10_r20_network.node[23].content_store 	decision_ratio[23] 	1
scalar tree_4_3_u10_r20_network.node[24].core_layer 	interests[24] 	14120
scalar tree_4_3_u10_r20_network.node[24].core_layer 	data[24] 	9950
scalar tree_4_3_u10_r20_network.node[24].content_store 	p_hit[24] 	0.29532577903683
scalar tree_4_3_u10_r20_network.node[24].content_store 	hits[24] 	4170
scalar tree_4_3_u10_r20_network.node[24].content_store 	misses[24] 	9950
scalar tree_4_3_u10_r20_network.node[24].content_store 	decision_yes[24] 	9950
scalar tree_4_3_u10_r20_network.node[24].content_store 	decision_no[24] 	0
scalar tree_4_3_u10_r20_network.node[24].content_store 	decision_ratio[24] 	1
scalar tree_4_3_u10_r20_network.node[25].core_layer 	interests[25] 	14235
scalar tree_4_3_u10_r20_network.node[25].core_layer 	data[25] 	10112
scalar tree_4_3_u10_r20_network.node[25].content_store 	p_hit[25] 	0.28963821566561
scalar tree_4_3_u10_r20_network.node[25].content_store 	hits[25] 	4123
scalar tree_4_3_u10_r20_network.node[25].content_store 	misses[25] 	10112
scalar tree_4_3_u10_r20_network.node[25].content_store 	decision_yes[25] 	10112
scalar tree_4_3_u10_r20_network.node[25].content_store 	decision_no[25] 	0
scalar tree_4_3_u10_r20_network.node[25].content_store 	decision_ratio[25] 	1
scalar tree_4_3_u10_r20_network.node[26].core_layer 	interests[26] 	13082
scalar tree_4_3_u10_r20_network.node[26].core_layer 	data[26] 	10255
scalar tree_4_3_u10_r20_network.node[26].content_store 	p_hit[26] 	0.21609845589359
scalar tree_4_3_u10_r20_network.node[26].content_store 	hits[26] 	2827
scalar tree_4_3_u10_r20_network.node[26].content_store 	misses[26] 	10255
scalar tree_4_3_u10_r20_network.node[26].content_store 	decision_yes[26] 	10255
scalar tree_4_3_u10_r20_network.node[26].content_store 	decision_no[26] 	0
scalar tree_4_3_u10_r20_network.node[26].content_store 	decision_ratio[26] 	1
scalar tree_4_3_u10_r20_network.node[27].core_layer 	interests[27] 	13815
scalar tree_4_3_u10_r20_network.node[27].core_layer 	data[27] 	9990
scalar tree_4_3_u10_r20_network.node[27].content_store 	p_hit[27] 	0.27680057908071
scalar tree_4_3_u10_r20_network.node[27].content_store 	hits[27] 	3824
scalar tree_4_3_u10_r20_network.node[27].content_store 	misses[27] 	9991
scalar tree_4_3_u10_r20_network.node[27].content_store 	decision_yes[27] 	9990
scalar tree_4_3_u10_r20_network.node[27].content_store 	decision_no[27] 	0
scalar tree_4_3_u10_r20_network.node[27].content_store 	decision_ratio[27] 	1
scalar tree_4_3_u10_r20_network.node[28].core_layer 	interests[28] 	14080
scalar tree_4_3_u10_r20_network.node[28].core_layer 	data[28] 	9979
scalar tree_4_3_u10_r20_network.node[28].content_store 	p_hit[28] 	0.29126420454545
scalar tree_4_3_u10_r20_network.node[28].content_store 	hits[28] 	4101
scalar tree_4_3_u10_r20_network.node[28].content_store 	misses[28] 	9979
scalar tree_4_3_u10_r20_network.node[28].content_store 	decision_yes[28] 	9979
scalar tree_4_3_u10_r20_network.node[28].content_store 	decision_no[28] 	0
scalar tree_4_3_u10_r20_network.node[28].content_store 	decision_ratio[28] 	1
scalar tree_4_3_u10_r20_network.node[29].core_layer 	interests[29] 	13887
scalar tree_4_3_u10_r20_network.node[29].core_layer 	data[29] 	10070
scalar tree_4_3_u10_r20_network.node[29].content_store 	p_hit[29] 	0.27471736156117
scalar tree_4_3_u10_r20_network.node[29].content_store 	hits[29] 	3815
scalar tree_4_3_u10_r20_network.node[29].content_store 	misses[29] 	10072
scalar tree_4_3_u10_r20_network.node[29].content_store 	decision_yes[29] 	10070
scalar tree_4_3_u10_r20_network.node[29].content_store 	decision_no[29] 	0
scalar tree_4_3_u10_r20_network.node[29].content_store 	decision_ratio[29] 	1
scalar tree_4_3_u10_r20_network.node[30].core_layer 	interests[30] 	12549
scalar tree_4_3_u10_r20_network.node[30].core_layer 	data[30] 	10220
scalar tree_4_3_u10_r20_network.node[30].content_store 	p_hit[30] 	0.18559247748825
scalar tree_4_3_u10_r20_network.node[30].content_store 	hits[30] 	2329
scalar tree_4_3_u10_r20_network.node[30].content_store 	misses[30] 	10220
scalar tree_4_3_u10_r20_network.node[30].content_store 	decision_yes[30] 	10220
scalar tree_4_3_u10_r20_network.node[30].content_store 	decision_no[30] 	0
scalar tree_4_3_u10_r20_network.node[30].content_store 	decision_ratio[30] 	1
scalar tree_4_3_u10_r20_network.node[31].core_layer 	interests[31] 	13411
scalar tree_4_3_u10_r20_network.node[31].core_layer 	data[31] 	10064
scalar tree_4_3_u10_r20_network.node[31].content_store 	p_hit[31] 	0.24949668182835
scalar tree_4_3_u10_r20_network.node[31].content_store 	hits[31] 	3346
scalar tree_4_3_u10_r20_network.node[31].content_store 	misses[31] 	10065
scalar tree_4_3_u10_r20_network.node[31].content_store 	decision_yes[31] 	10064
scalar tree_4_3_u10_r20_network.node[31].content_store 	decision_no[31] 	0
scalar tree_4_3_u10_r20_network.node[31].content_store 	decision_ratio[31] 	1
scalar tree_4_3_u10_r20_network.node[32].core_layer 	interests[32] 	14343
scalar tree_4_3_u10_r20_network.node[32].core_layer 	data[32] 	10201
scalar tree_4_3_u10_r20_network.node[32].content_store 	p_hit[32] 	0.28878198424318
scalar tree_4_3_u10_r20_network.node[32].content_store 	hits[32] 	4142
scalar tree_4_3_u10_r20_network.node[32].content_store 	misses[32] 	10201
scalar tree_4_3_u10_r20_network.node[32].content_store 	decision_yes[32] 	10201
scalar tree_4_3_u10_r20_network.node[32].content_store 	decision_no[32] 	0
scalar tree_4_3_u10_r20_network.node[32].content_store 	decision_ratio[32] 	1
scalar tree_4_3_u10_r20_network.node[33].core_layer 	interests[33] 	14121
scalar tree_4_3_u10_r20_network.node[33].core_layer 	data[33] 	10213
scalar tree_4_3_u10_r20_network.node[33].content_store 	p_hit[33] 	0.27675093831882
scalar tree_4_3_u10_r20_network.node[33].content_store 	hits[33] 	3908
scalar tree_4_3_u10_r20_network.node[33].content_store 	misses[33] 	10213
scalar tree_4_3_u10_r20_network.node[33].content_store 	decision_yes[33] 	10213
scalar tree_4_3_u10_r20_network.node[33].content_store 	decision_no[33] 	0
scalar tree_4_3_u10_r20_network.node[33].content_store 	decision_ratio[33] 	1
scalar tree_4_3_u10_r20_network.node[34].core_layer 	interests[34] 	14311
scalar tree_4_3_u10_r20_network.node[34].core_layer 	data[34] 	10157
scalar tree_4_3_u10_r20_network.node[34].content_store 	p_hit[34] 	0.29026622877507
scalar tree_4_3_u10_r20_network.node[34].content_store 	hits[34] 	4154
scalar tree_4_3_u10_r20_network.node[34].content_store 	misses[34] 	10157
scalar tree_4_3_u10_r20_network.node[34].content_store 	decision_yes[34] 	10157
scalar tree_4_3_u10_r20_network.node[34].content_store 	decision_no[34] 	0
scalar tree_4_3_u10_r20_network.node[34].content_store 	decision_ratio[34] 	1
scalar tree_4_3_u10_r20_network.node[35].core_layer 	interests[35] 	13229
scalar tree_4_3_u10_r20_network.node[35].core_layer 	data[35] 	10157
scalar tree_4_3_u10_r20_network.node[35].content_store 	p_hit[35] 	0.23199032428755
scalar tree_4_3_u10_r20_network.node[35].content_store 	hits[35] 	3069
scalar tree_4_3_u10_r20_network.node[35].content_store 	misses[35] 	10160
scalar tree_4_3_u10_r20_network.node[35].content_store 	decision_yes[35] 	10157
scalar tree_4_3_u10_r20_network.node[35].content_store 	decision_no[35] 	0
scalar tree_4_3_u10_r20_network.node[35].content_store 	decision_ratio[35] 	1
scalar tree_4_3_u10_r20_network.node[36].core_layer 	interests[36] 	13830
scalar tree_4_3_u10_r20_network.node[36].core_layer 	data[36] 	10078
scalar tree_4_3_u10_r20_network.node[36].content_store 	p_hit[36] 	0.27122198120029
scalar tree_4_3_u10_r20_network.node[36].content_store 	hits[36] 	3751
scalar tree_4_3_u10_r20_network.node[36].content_store 	misses[36] 	10079
scalar tree_4_3_u10_r20_network.node[36].content_store 	decision_yes[36] 	10078
scalar tree_4_3_u10_r20_network.node[36].content_store 	decision_no[36] 	0
scalar tree_4_3_u10_r20_network.node[36].content_store 	decision_ratio[36] 	1
scalar tree_4_3_u10_r20_network.node[37].core_layer 	interests[37] 	14057
scalar tree_4_3_u10_r20_network.node[37].core_layer 	data[37] 	10221
scalar tree_4_3_u10_r20_network.node[37].content_store 	p_hit[37] 	0.2728889521235
scalar tree_4_3_u10_r20_network.node[37].content_store 	hits[37] 	3836
scalar tree_4_3_u10_r20_network.node[37].content_store 	misses[37] 	10221
scalar tree_4_3_u10_r20_network.node[37].content_store 	decision_yes[37] 	10221
scalar tree_4_3_u10_r20_network.node[37].content_store 	decision_no[37] 	0
scalar tree_4_3_u10_r20_network.node[37].content_store 	decision_ratio[37] 	1
scalar tree_4_3_u10_r20_network.node[38].core_layer 	interests[38] 	13828
scalar tree_4_3_u10_r20_network.node[38].core_layer 	data[38] 	9924
scalar tree_4_3_u10_r20_network.node[38].content_store 	p_hit[38] 	0.28225339890078
scalar tree_4_3_u10_r20_network.node[38].content_store 	hits[38] 	3903
scalar tree_4_3_u10_r20_network.node[38].content_store 	misses[38] 	9925
scalar tree_4_3_u10_r20_network.node[38].content_store 	decision_yes[38] 	9924
scalar tree_4_3_u10_r20_network.node[38].content_store 	decision_no[38] 	0
scalar tree_4_3_u10_r20_network.node[38].content_store 	decision_ratio[38] 	1
scalar tree_4_3_u10_r20_network.node[39].core_layer 	interests[39] 	12116
scalar tree_4_3_u10_r20_network.node[39].core_layer 	data[39] 	9987
scalar tree_4_3_u10_r20_network.node[39].content_store 	p_hit[39] 	0.17563552327501
scalar tree_4_3_u10_r20_network.node[39].content_store 	hits[39] 	2128
scalar tree_4_3_u10_r20_network.node[39].content_store 	misses[39] 	9988
scalar tree_4_3_u10_r20_network.node[39].content_store 	decision_yes[39] 	9987
scalar tree_4_3_u10_r20_network.node[39].content_store 	decision_no[39] 	0
scalar tree_4_3_u10_r20_network.node[39].content_store 	decision_ratio[39] 	1
scalar tree_4_3_u10_r20_network.client[13] 	hdistance[13] 	3.0673157629679
scalar tree_4_3_u10_r20_network.client[13] 	downloads[13] 	11914
scalar tree_4_3_u10_r20_network.client[13] 	avg_time[13] 	0.004900633619
scalar tree_4_3_u10_r20_network.client[14] 	hdistance[14] 	2.9544477513228
scalar tree_4_3_u10_r20_network.client[14] 	downloads[14] 	12096
scalar tree_4_3_u10_r20_network.client[14] 	avg_time[14] 	0.004719000694
scalar tree_4_3_u10_r20_network.client[15] 	hdistance[15] 	2.9635492427483
scalar tree_4_3_u10_r20_network.client[15] 	downloads[15] 	11687
scalar tree_4_3_u10_r20_network.client[15] 	avg_time[15] 	0.004720626844
scalar tree_4_3_u10_r20_network.client[16] 	hdistance[16] 	2.9633494946175
scalar tree_4_3_u10_r20_network.client[16] 	downloads[16] 	12169
scalar tree_4_3_u10_r20_network.client[16] 	avg_time[16] 	0.004733376178
scalar tree_4_3_u10_r20_network.client[17] 	hdistance[17] 	3.0432788525684
scalar tree_4_3_u10_r20_network.client[17] 	downloads[17] 	11992
scalar tree_4_3_u10_r20_network.client[17] 	avg_time[17] 	0.004892538198
scalar tree_4_3_u10_r20_network.client[18] 	hdistance[18] 	2.9099334400539
scalar tree_4_3_u10_r20_network.client[18] 	downloads[18] 	11869
scalar tree_4_3_u10_r20_network.client[18] 	avg_time[18] 	0.004632673603
scalar tree_4_3_u10_r20_network.client[19] 	hdistance[19] 	2.9284231503778
scalar tree_4_3_u10_r20_network.client[19] 	downloads[19] 	12043
scalar tree_4_3_u10_r20_network.client[19] 	avg_time[19] 	0.004668132122
scalar tree_4_3_u10_r20_network.client[20] 	hdistance[20] 	2.9042955892034
scalar tree_4_3_u10_r20_network.client[20] 	downloads[20] 	12152
scalar tree_4_3_u10_r20_network.client[20] 	avg_time[20] 	0.00462670809
scalar tree_4_3_u10_r20_network.client[21] 	hdistance[21] 	3.0170397594387
scalar tree_4_3_u10_r20_network.client[21] 	downloads[21] 	11972
scalar tree_4_3_u10_r20_network.client[21] 	avg_time[21] 	0.004841293372
scalar tree_4_3_u10_r20_network.client[22] 	hdistance[22] 	3.035840782594
scalar tree_4_3_u10_r20_network.client[22] 	downloads[22] 	11858
scalar tree_4_3_u10_r20_network.client[22] 	avg_time[22] 	0.004879793078
scalar tree_4_3_u10_r20_network.client[23] 	hdistance[23] 	2.9926689966755
scalar tree_4_3_u10_r20_network.client[23] 	downloads[23] 	11731
scalar tree_4_3_u10_r20_network.client[23] 	avg_time[23] 	0.004778862656
scalar tree_4_3_u10_r20_network.client[24] 	hdistance[24] 	2.9112774367169
scalar tree_4_3_u10_r20_network.client[24] 	downloads[24] 	11891
scalar tree_4_3_u10_r20_network.client[24] 	avg_time[24] 	0.004635099219
scalar tree_4_3_u10_r20_network.client[25] 	hdistance[25] 	2.9630641821946
scalar tree_4_3_u10_r20_network.client[25] 	downloads[25] 	12075
scalar tree_4_3_u10_r20_network.client[25] 	avg_time[25] 	0.004734158236
scalar tree_4_3_u10_r20_network.client[26] 	hdistance[26] 	3.0663273682482
scalar tree_4_3_u10_r20_network.client[26] 	downloads[26] 	12182
scalar tree_4_3_u10_r20_network.client[26] 	avg_time[26] 	0.004896237302
scalar tree_4_3_u10_r20_network.client[27] 	hdistance[27] 	2.9370705547176
scalar tree_4_3_u10_r20_network.client[27] 	downloads[27] 	11934
scalar tree_4_3_u10_r20_network.client[27] 	avg_time[27] 	0.00468224943
scalar tree_4_3_u10_r20_network.client[28] 	hdistance[28] 	2.9133534641838
scalar tree_4_3_u10_r20_network.client[28] 	downloads[28] 	11922
scalar tree_4_3_u10_r20_network.client[28] 	avg_time[28] 	0.004638274263
scalar tree_4_3_u10_r20_network.client[29] 	hdistance[29] 	2.9350315300365
scalar tree_4_3_u10_r20_network.client[29] 	downloads[29] 	12052
scalar tree_4_3_u10_r20_network.client[29] 	avg_time[29] 	0.004670396254
scalar tree_4_3_u10_r20_network.client[30] 	hdistance[30] 	3.0370247385024
scalar tree_4_3_u10_r20_network.client[30] 	downloads[30] 	12046
scalar tree_4_3_u10_r20_network.client[30] 	avg_time[30] 	0.004874312135
scalar tree_4_3_u10_r20_network.client[31] 	hdistance[31] 	3.0077255358033
scalar tree_4_3_u10_r20_network.client[31] 	downloads[31] 	12038
scalar tree_4_3_u10_r20_network.client[31] 	avg_time[31] 	0.004832885089
scalar tree_4_3_u10_r20_network.client[32] 	hdistance[32] 	2.9270108829065
scalar tree_4_3_u10_r20_network.client[32] 	downloads[32] 	12221
scalar tree_4_3_u10_r20_network.client[32] 	avg_time[32] 	0.004666227203
scalar tree_4_3_u10_r20_network.client[33] 	hdistance[33] 	2.9459614596146
scalar tree_4_3_u10_r20_network.client[33] 	downloads[33] 	12195
scalar tree_4_3_u10_r20_network.client[33] 	avg_time[33] 	0.004689623848
scalar tree_4_3_u10_r20_network.client[34] 	hdistance[34] 	2.9463076160581
scalar tree_4_3_u10_r20_network.client[34] 	downloads[34] 	12106
scalar tree_4_3_u10_r20_network.client[34] 	avg_time[34] 	0.004706863401
scalar tree_4_3_u10_r20_network.client[35] 	hdistance[35] 	3.0244571999002
scalar tree_4_3_u10_r20_network.client[35] 	downloads[35] 	12021
scalar tree_4_3_u10_r20_network.client[35] 	avg_time[35] 	0.00486164194
scalar tree_4_3_u10_r20_network.client[36] 	hdistance[36] 	2.9470617612785
scalar tree_4_3_u10_r20_network.client[36] 	downloads[36] 	12014
scalar tree_4_3_u10_r20_network.client[36] 	avg_time[36] 	0.00469205579
scalar tree_4_3_u10_r20_network.client[37] 	hdistance[37] 	2.9582232496697
scalar tree_4_3_u10_r20_network.client[37] 	downloads[37] 	12112
scalar tree_4_3_u10_r20_network.client[37] 	avg_time[37] 	0.004713834488
scalar tree_4_3_u10_r20_network.client[38] 	hdistance[38] 	2.9173442870316
scalar tree_4_3_u10_r20_network.client[38] 	downloads[38] 	11929
scalar tree_4_3_u10_r20_network.client[38] 	avg_time[38] 	0.004643872217
scalar tree_4_3_u10_r20_network.client[39] 	hdistance[39] 	3.0472088506038
scalar tree_4_3_u10_r20_network.client[39] 	downloads[39] 	11841
scalar tree_4_3_u10_r20_network.client[39] 	avg_time[39] 	0.004850387116
