version 2
run General-122-20160819-22:57:47-9589
attr a 0.9
attr cd fix0.01
attr configname General
attr cr lru
attr datetime 20160819-22:57:47
attr experiment General
attr fsize 1
attr inifile hw5115/scenario_A/SPR-FIX0.01.ini
attr iterationvars "$name=tree_4_3, $un=06, $rep=3, $cd=fix0.01, $cr=lru, $fsize=1, $a=0.9, $sl=spr, $ttl=1000, $variance=0.05"
attr iterationvars2 "$name=tree_4_3, $un=06, $rep=3, $cd=fix0.01, $cr=lru, $fsize=1, $a=0.9, $sl=spr, $ttl=1000, $variance=0.05, $repetition=0"
attr measurement "$name=tree_4_3, $un=06, $rep=3, $cd=fix0.01, $cr=lru, $fsize=1, $a=0.9, $sl=spr, $ttl=1000, $variance=0.05"
attr name tree_4_3
attr network networks.${name}_u${un}_r${rep}_network
attr processid 9589
attr rep 3
attr repetition 0
attr replication #0
attr resultdir results
attr runnumber 122
attr seedset 3
attr sl spr
attr ttl 1000
attr un 06
attr variance 0.05

scalar . 	a 	0.9
scalar . 	fsize 	1
scalar . 	rep 	3
scalar . 	ttl 	1000
scalar . 	un 	06
scalar . 	variance 	0.05
scalar tree_4_3_u06_r3_network.content_distribution 	repo-0 	0
scalar tree_4_3_u06_r3_network.content_distribution 	client-0 	13
scalar tree_4_3_u06_r3_network.content_distribution 	client-1 	14
scalar tree_4_3_u06_r3_network.content_distribution 	client-2 	15
scalar tree_4_3_u06_r3_network.content_distribution 	client-3 	16
scalar tree_4_3_u06_r3_network.content_distribution 	client-4 	17
scalar tree_4_3_u06_r3_network.content_distribution 	client-5 	18
scalar tree_4_3_u06_r3_network.content_distribution 	client-6 	19
scalar tree_4_3_u06_r3_network.content_distribution 	client-7 	20
scalar tree_4_3_u06_r3_network.content_distribution 	client-8 	21
scalar tree_4_3_u06_r3_network.content_distribution 	client-9 	22
scalar tree_4_3_u06_r3_network.content_distribution 	client-10 	23
scalar tree_4_3_u06_r3_network.content_distribution 	client-11 	24
scalar tree_4_3_u06_r3_network.content_distribution 	client-12 	25
scalar tree_4_3_u06_r3_network.content_distribution 	client-13 	26
scalar tree_4_3_u06_r3_network.content_distribution 	client-14 	27
scalar tree_4_3_u06_r3_network.content_distribution 	client-15 	28
scalar tree_4_3_u06_r3_network.content_distribution 	client-16 	29
scalar tree_4_3_u06_r3_network.content_distribution 	client-17 	30
scalar tree_4_3_u06_r3_network.content_distribution 	client-18 	31
scalar tree_4_3_u06_r3_network.content_distribution 	client-19 	32
scalar tree_4_3_u06_r3_network.content_distribution 	client-20 	33
scalar tree_4_3_u06_r3_network.content_distribution 	client-21 	34
scalar tree_4_3_u06_r3_network.content_distribution 	client-22 	35
scalar tree_4_3_u06_r3_network.content_distribution 	client-23 	36
scalar tree_4_3_u06_r3_network.content_distribution 	client-24 	37
scalar tree_4_3_u06_r3_network.content_distribution 	client-25 	38
scalar tree_4_3_u06_r3_network.content_distribution 	client-26 	39
scalar tree_4_3_u06_r3_network.content_distribution 	repo-0_card 	100000
scalar tree_4_3_u06_r3_network.content_distribution 	repo-0_price 	0
scalar tree_4_3_u06_r3_network.statistics 	stabilization_time 	2289.5
scalar tree_4_3_u06_r3_network.statistics 	p_hit 	0.17731549582344
scalar tree_4_3_u06_r3_network.statistics 	interests 	25713
scalar tree_4_3_u06_r3_network.statistics 	data 	17607.65
scalar tree_4_3_u06_r3_network.statistics 	hdistance 	2.8545712362789
scalar tree_4_3_u06_r3_network.statistics 	avg_time 	0.004344961515
scalar tree_4_3_u06_r3_network.statistics 	downloads 	324198
scalar tree_4_3_u06_r3_network.statistics 	total_cost 	0
scalar tree_4_3_u06_r3_network.statistics 	total_replicas 	100000
scalar tree_4_3_u06_r3_network.statistics 	inner_hit 	0.31798468836945
scalar tree_4_3_u06_r3_network.node[0].core_layer 	interests[0] 	225407
scalar tree_4_3_u06_r3_network.node[0].core_layer 	repo_load[0] 	221108
scalar tree_4_3_u06_r3_network.node[0].core_layer 	data[0] 	0
scalar tree_4_3_u06_r3_network.node[0].core_layer 	repo_int[0] 	221108
scalar tree_4_3_u06_r3_network.node[0].content_store 	p_hit[0] 	0.019072167235268
scalar tree_4_3_u06_r3_network.node[0].content_store 	hits[0] 	4299
scalar tree_4_3_u06_r3_network.node[0].content_store 	misses[0] 	221108
scalar tree_4_3_u06_r3_network.node[0].content_store 	decision_yes[0] 	2187
scalar tree_4_3_u06_r3_network.node[0].content_store 	decision_no[0] 	218921
scalar tree_4_3_u06_r3_network.node[0].content_store 	decision_ratio[0] 	0.0098910939450404
scalar tree_4_3_u06_r3_network.node[1].core_layer 	interests[1] 	103531
scalar tree_4_3_u06_r3_network.node[1].core_layer 	data[1] 	100393
scalar tree_4_3_u06_r3_network.node[1].content_store 	p_hit[1] 	0.030271126522491
scalar tree_4_3_u06_r3_network.node[1].content_store 	hits[1] 	3134
scalar tree_4_3_u06_r3_network.node[1].content_store 	misses[1] 	100397
scalar tree_4_3_u06_r3_network.node[1].content_store 	decision_yes[1] 	984
scalar tree_4_3_u06_r3_network.node[1].content_store 	decision_no[1] 	99409
scalar tree_4_3_u06_r3_network.node[1].content_store 	decision_ratio[1] 	0.0098014801828813
scalar tree_4_3_u06_r3_network.node[2].core_layer 	interests[2] 	85912
scalar tree_4_3_u06_r3_network.node[2].core_layer 	data[2] 	83451
scalar tree_4_3_u06_r3_network.node[2].content_store 	p_hit[2] 	0.028610671384673
scalar tree_4_3_u06_r3_network.node[2].content_store 	hits[2] 	2458
scalar tree_4_3_u06_r3_network.node[2].content_store 	misses[2] 	83454
scalar tree_4_3_u06_r3_network.node[2].content_store 	decision_yes[2] 	862
scalar tree_4_3_u06_r3_network.node[2].content_store 	decision_no[2] 	82589
scalar tree_4_3_u06_r3_network.node[2].content_store 	decision_ratio[2] 	0.010329414866209
scalar tree_4_3_u06_r3_network.node[3].core_layer 	interests[3] 	42841
scalar tree_4_3_u06_r3_network.node[3].core_layer 	data[3] 	41561
scalar tree_4_3_u06_r3_network.node[3].content_store 	p_hit[3] 	0.029877920683457
scalar tree_4_3_u06_r3_network.node[3].content_store 	hits[3] 	1280
scalar tree_4_3_u06_r3_network.node[3].content_store 	misses[3] 	41561
scalar tree_4_3_u06_r3_network.node[3].content_store 	decision_yes[3] 	435
scalar tree_4_3_u06_r3_network.node[3].content_store 	decision_no[3] 	41126
scalar tree_4_3_u06_r3_network.node[3].content_store 	decision_ratio[3] 	0.010466543153437
scalar tree_4_3_u06_r3_network.node[4].core_layer 	interests[4] 	45443
scalar tree_4_3_u06_r3_network.node[4].core_layer 	data[4] 	42771
scalar tree_4_3_u06_r3_network.node[4].content_store 	p_hit[4] 	0.058688906982374
scalar tree_4_3_u06_r3_network.node[4].content_store 	hits[4] 	2667
scalar tree_4_3_u06_r3_network.node[4].content_store 	misses[4] 	42776
scalar tree_4_3_u06_r3_network.node[4].content_store 	decision_yes[4] 	397
scalar tree_4_3_u06_r3_network.node[4].content_store 	decision_no[4] 	42374
scalar tree_4_3_u06_r3_network.node[4].content_store 	decision_ratio[4] 	0.0092819901335017
scalar tree_4_3_u06_r3_network.node[5].core_layer 	interests[5] 	27389
scalar tree_4_3_u06_r3_network.node[5].core_layer 	data[5] 	25809
scalar tree_4_3_u06_r3_network.node[5].content_store 	p_hit[5] 	0.057650881740845
scalar tree_4_3_u06_r3_network.node[5].content_store 	hits[5] 	1579
scalar tree_4_3_u06_r3_network.node[5].content_store 	misses[5] 	25810
scalar tree_4_3_u06_r3_network.node[5].content_store 	decision_yes[5] 	265
scalar tree_4_3_u06_r3_network.node[5].content_store 	decision_no[5] 	25544
scalar tree_4_3_u06_r3_network.node[5].content_store 	decision_ratio[5] 	0.010267736061064
scalar tree_4_3_u06_r3_network.node[6].core_layer 	interests[6] 	9244
scalar tree_4_3_u06_r3_network.node[6].core_layer 	data[6] 	8726
scalar tree_4_3_u06_r3_network.node[6].content_store 	p_hit[6] 	0.056036347901341
scalar tree_4_3_u06_r3_network.node[6].content_store 	hits[6] 	518
scalar tree_4_3_u06_r3_network.node[6].content_store 	misses[6] 	8726
scalar tree_4_3_u06_r3_network.node[6].content_store 	decision_yes[6] 	82
scalar tree_4_3_u06_r3_network.node[6].content_store 	decision_no[6] 	8644
scalar tree_4_3_u06_r3_network.node[6].content_store 	decision_ratio[6] 	0.0093972037588815
scalar tree_4_3_u06_r3_network.node[7].core_layer 	interests[7] 	27758
scalar tree_4_3_u06_r3_network.node[7].core_layer 	data[7] 	26223
scalar tree_4_3_u06_r3_network.node[7].content_store 	p_hit[7] 	0.055263347503422
scalar tree_4_3_u06_r3_network.node[7].content_store 	hits[7] 	1534
scalar tree_4_3_u06_r3_network.node[7].content_store 	misses[7] 	26224
scalar tree_4_3_u06_r3_network.node[7].content_store 	decision_yes[7] 	276
scalar tree_4_3_u06_r3_network.node[7].content_store 	decision_no[7] 	25947
scalar tree_4_3_u06_r3_network.node[7].content_store 	decision_ratio[7] 	0.010525111543302
scalar tree_4_3_u06_r3_network.node[8].core_layer 	interests[8] 	36646
scalar tree_4_3_u06_r3_network.node[8].core_layer 	data[8] 	34536
scalar tree_4_3_u06_r3_network.node[8].content_store 	p_hit[8] 	0.057523331332205
scalar tree_4_3_u06_r3_network.node[8].content_store 	hits[8] 	2108
scalar tree_4_3_u06_r3_network.node[8].content_store 	misses[8] 	34538
scalar tree_4_3_u06_r3_network.node[8].content_store 	decision_yes[8] 	340
scalar tree_4_3_u06_r3_network.node[8].content_store 	decision_no[8] 	34196
scalar tree_4_3_u06_r3_network.node[8].content_store 	decision_ratio[8] 	0.0098447996293723
scalar tree_4_3_u06_r3_network.node[9].core_layer 	interests[9] 	18092
scalar tree_4_3_u06_r3_network.node[9].core_layer 	data[9] 	17036
scalar tree_4_3_u06_r3_network.node[9].content_store 	p_hit[9] 	0.058313066548751
scalar tree_4_3_u06_r3_network.node[9].content_store 	hits[9] 	1055
scalar tree_4_3_u06_r3_network.node[9].content_store 	misses[9] 	17037
scalar tree_4_3_u06_r3_network.node[9].content_store 	decision_yes[9] 	151
scalar tree_4_3_u06_r3_network.node[9].content_store 	decision_no[9] 	16885
scalar tree_4_3_u06_r3_network.node[9].content_store 	decision_ratio[9] 	0.0088635830007044
scalar tree_4_3_u06_r3_network.node[10].core_layer 	interests[10] 	27205
scalar tree_4_3_u06_r3_network.node[10].core_layer 	data[10] 	25646
scalar tree_4_3_u06_r3_network.node[10].content_store 	p_hit[10] 	0.057305642345157
scalar tree_4_3_u06_r3_network.node[10].content_store 	hits[10] 	1559
scalar tree_4_3_u06_r3_network.node[10].content_store 	misses[10] 	25646
scalar tree_4_3_u06_r3_network.node[10].content_store 	decision_yes[10] 	264
scalar tree_4_3_u06_r3_network.node[10].content_store 	decision_no[10] 	25382
scalar tree_4_3_u06_r3_network.node[10].content_store 	decision_ratio[10] 	0.010294002963425
scalar tree_4_3_u06_r3_network.node[11].core_layer 	interests[11] 	36438
scalar tree_4_3_u06_r3_network.node[11].core_layer 	data[11] 	34338
scalar tree_4_3_u06_r3_network.node[11].content_store 	p_hit[11] 	0.057494922882705
scalar tree_4_3_u06_r3_network.node[11].content_store 	hits[11] 	2095
scalar tree_4_3_u06_r3_network.node[11].content_store 	misses[11] 	34343
scalar tree_4_3_u06_r3_network.node[11].content_store 	decision_yes[11] 	359
scalar tree_4_3_u06_r3_network.node[11].content_store 	decision_no[11] 	33979
scalar tree_4_3_u06_r3_network.node[11].content_store 	decision_ratio[11] 	0.010454889626653
scalar tree_4_3_u06_r3_network.node[12].core_layer 	interests[12] 	18409
scalar tree_4_3_u06_r3_network.node[12].core_layer 	data[12] 	17195
scalar tree_4_3_u06_r3_network.node[12].content_store 	p_hit[12] 	0.066000325927535
scalar tree_4_3_u06_r3_network.node[12].content_store 	hits[12] 	1215
scalar tree_4_3_u06_r3_network.node[12].content_store 	misses[12] 	17194
scalar tree_4_3_u06_r3_network.node[12].content_store 	decision_yes[12] 	167
scalar tree_4_3_u06_r3_network.node[12].content_store 	decision_no[12] 	17028
scalar tree_4_3_u06_r3_network.node[12].content_store 	decision_ratio[12] 	0.0097121256179122
scalar tree_4_3_u06_r3_network.node[13].core_layer 	interests[13] 	11842
scalar tree_4_3_u06_r3_network.node[13].core_layer 	data[13] 	9002
scalar tree_4_3_u06_r3_network.node[13].content_store 	p_hit[13] 	0.23982435399426
scalar tree_4_3_u06_r3_network.node[13].content_store 	hits[13] 	2840
scalar tree_4_3_u06_r3_network.node[13].content_store 	misses[13] 	9002
scalar tree_4_3_u06_r3_network.node[13].content_store 	decision_yes[13] 	80
scalar tree_4_3_u06_r3_network.node[13].content_store 	decision_no[13] 	8922
scalar tree_4_3_u06_r3_network.node[13].content_store 	decision_ratio[13] 	0.0088869140191069
scalar tree_4_3_u06_r3_network.node[14].core_layer 	interests[14] 	12058
scalar tree_4_3_u06_r3_network.node[14].core_layer 	data[14] 	9143
scalar tree_4_3_u06_r3_network.node[14].content_store 	p_hit[14] 	0.2417482169514
scalar tree_4_3_u06_r3_network.node[14].content_store 	hits[14] 	2915
scalar tree_4_3_u06_r3_network.node[14].content_store 	misses[14] 	9143
scalar tree_4_3_u06_r3_network.node[14].content_store 	decision_yes[14] 	108
scalar tree_4_3_u06_r3_network.node[14].content_store 	decision_no[14] 	9035
scalar tree_4_3_u06_r3_network.node[14].content_store 	decision_ratio[14] 	0.011812315432571
scalar tree_4_3_u06_r3_network.node[15].core_layer 	interests[15] 	11982
scalar tree_4_3_u06_r3_network.node[15].core_layer 	data[15] 	9119
scalar tree_4_3_u06_r3_network.node[15].content_store 	p_hit[15] 	0.23885828743115
scalar tree_4_3_u06_r3_network.node[15].content_store 	hits[15] 	2862
scalar tree_4_3_u06_r3_network.node[15].content_store 	misses[15] 	9120
scalar tree_4_3_u06_r3_network.node[15].content_store 	decision_yes[15] 	91
scalar tree_4_3_u06_r3_network.node[15].content_store 	decision_no[15] 	9028
scalar tree_4_3_u06_r3_network.node[15].content_store 	decision_ratio[15] 	0.0099791643820594
scalar tree_4_3_u06_r3_network.node[16].core_layer 	interests[16] 	11994
scalar tree_4_3_u06_r3_network.node[16].core_layer 	data[16] 	9108
scalar tree_4_3_u06_r3_network.node[16].content_store 	p_hit[16] 	0.24062031015508
scalar tree_4_3_u06_r3_network.node[16].content_store 	hits[16] 	2886
scalar tree_4_3_u06_r3_network.node[16].content_store 	misses[16] 	9108
scalar tree_4_3_u06_r3_network.node[16].content_store 	decision_yes[16] 	108
scalar tree_4_3_u06_r3_network.node[16].content_store 	decision_no[16] 	9000
scalar tree_4_3_u06_r3_network.node[16].content_store 	decision_ratio[16] 	0.011857707509881
scalar tree_4_3_u06_r3_network.node[17].core_layer 	interests[17] 	12075
scalar tree_4_3_u06_r3_network.node[17].core_layer 	data[17] 	9185
scalar tree_4_3_u06_r3_network.node[17].content_store 	p_hit[17] 	0.23933747412008
scalar tree_4_3_u06_r3_network.node[17].content_store 	hits[17] 	2890
scalar tree_4_3_u06_r3_network.node[17].content_store 	misses[17] 	9185
scalar tree_4_3_u06_r3_network.node[17].content_store 	decision_yes[17] 	86
scalar tree_4_3_u06_r3_network.node[17].content_store 	decision_no[17] 	9099
scalar tree_4_3_u06_r3_network.node[17].content_store 	decision_ratio[17] 	0.0093630919978225
scalar tree_4_3_u06_r3_network.node[18].core_layer 	interests[18] 	11849
scalar tree_4_3_u06_r3_network.node[18].core_layer 	data[18] 	9003
scalar tree_4_3_u06_r3_network.node[18].content_store 	p_hit[18] 	0.24018904548907
scalar tree_4_3_u06_r3_network.node[18].content_store 	hits[18] 	2846
scalar tree_4_3_u06_r3_network.node[18].content_store 	misses[18] 	9003
scalar tree_4_3_u06_r3_network.node[18].content_store 	decision_yes[18] 	79
scalar tree_4_3_u06_r3_network.node[18].content_store 	decision_no[18] 	8924
scalar tree_4_3_u06_r3_network.node[18].content_store 	decision_ratio[18] 	0.0087748528268355
scalar tree_4_3_u06_r3_network.node[19].core_layer 	interests[19] 	11903
scalar tree_4_3_u06_r3_network.node[19].core_layer 	data[19] 	9070
scalar tree_4_3_u06_r3_network.node[19].content_store 	p_hit[19] 	0.23792321263547
scalar tree_4_3_u06_r3_network.node[19].content_store 	hits[19] 	2832
scalar tree_4_3_u06_r3_network.node[19].content_store 	misses[19] 	9071
scalar tree_4_3_u06_r3_network.node[19].content_store 	decision_yes[19] 	87
scalar tree_4_3_u06_r3_network.node[19].content_store 	decision_no[19] 	8983
scalar tree_4_3_u06_r3_network.node[19].content_store 	decision_ratio[19] 	0.0095920617420066
scalar tree_4_3_u06_r3_network.node[20].core_layer 	interests[20] 	11979
scalar tree_4_3_u06_r3_network.node[20].core_layer 	data[20] 	9201
scalar tree_4_3_u06_r3_network.node[20].content_store 	p_hit[20] 	0.23190583521162
scalar tree_4_3_u06_r3_network.node[20].content_store 	hits[20] 	2778
scalar tree_4_3_u06_r3_network.node[20].content_store 	misses[20] 	9201
scalar tree_4_3_u06_r3_network.node[20].content_store 	decision_yes[20] 	73
scalar tree_4_3_u06_r3_network.node[20].content_store 	decision_no[20] 	9128
scalar tree_4_3_u06_r3_network.node[20].content_store 	decision_ratio[20] 	0.0079339202260624
scalar tree_4_3_u06_r3_network.node[21].core_layer 	interests[21] 	12100
scalar tree_4_3_u06_r3_network.node[21].core_layer 	data[21] 	9244
scalar tree_4_3_u06_r3_network.node[21].content_store 	p_hit[21] 	0.23595041322314
scalar tree_4_3_u06_r3_network.node[21].content_store 	hits[21] 	2855
scalar tree_4_3_u06_r3_network.node[21].content_store 	misses[21] 	9245
scalar tree_4_3_u06_r3_network.node[21].content_store 	decision_yes[21] 	86
scalar tree_4_3_u06_r3_network.node[21].content_store 	decision_no[21] 	9158
scalar tree_4_3_u06_r3_network.node[21].content_store 	decision_ratio[21] 	0.0093033318909563
scalar tree_4_3_u06_r3_network.node[22].core_layer 	interests[22] 	12169
scalar tree_4_3_u06_r3_network.node[22].core_layer 	data[22] 	9187
scalar tree_4_3_u06_r3_network.node[22].content_store 	p_hit[22] 	0.24504889473252
scalar tree_4_3_u06_r3_network.node[22].content_store 	hits[22] 	2982
scalar tree_4_3_u06_r3_network.node[22].content_store 	misses[22] 	9187
scalar tree_4_3_u06_r3_network.node[22].content_store 	decision_yes[22] 	93
scalar tree_4_3_u06_r3_network.node[22].content_store 	decision_no[22] 	9094
scalar tree_4_3_u06_r3_network.node[22].content_store 	decision_ratio[22] 	0.010122999891151
scalar tree_4_3_u06_r3_network.node[23].core_layer 	interests[23] 	12072
scalar tree_4_3_u06_r3_network.node[23].core_layer 	data[23] 	9196
scalar tree_4_3_u06_r3_network.node[23].content_store 	p_hit[23] 	0.23823724320742
scalar tree_4_3_u06_r3_network.node[23].content_store 	hits[23] 	2876
scalar tree_4_3_u06_r3_network.node[23].content_store 	misses[23] 	9196
scalar tree_4_3_u06_r3_network.node[23].content_store 	decision_yes[23] 	85
scalar tree_4_3_u06_r3_network.node[23].content_store 	decision_no[23] 	9111
scalar tree_4_3_u06_r3_network.node[23].content_store 	decision_ratio[23] 	0.0092431491953023
scalar tree_4_3_u06_r3_network.node[24].core_layer 	interests[24] 	12278
scalar tree_4_3_u06_r3_network.node[24].core_layer 	data[24] 	9374
scalar tree_4_3_u06_r3_network.node[24].content_store 	p_hit[24] 	0.23643915947223
scalar tree_4_3_u06_r3_network.node[24].content_store 	hits[24] 	2903
scalar tree_4_3_u06_r3_network.node[24].content_store 	misses[24] 	9375
scalar tree_4_3_u06_r3_network.node[24].content_store 	decision_yes[24] 	95
scalar tree_4_3_u06_r3_network.node[24].content_store 	decision_no[24] 	9279
scalar tree_4_3_u06_r3_network.node[24].content_store 	decision_ratio[24] 	0.010134414337529
scalar tree_4_3_u06_r3_network.node[25].core_layer 	interests[25] 	12004
scalar tree_4_3_u06_r3_network.node[25].core_layer 	data[25] 	9274
scalar tree_4_3_u06_r3_network.node[25].content_store 	p_hit[25] 	0.22742419193602
scalar tree_4_3_u06_r3_network.node[25].content_store 	hits[25] 	2730
scalar tree_4_3_u06_r3_network.node[25].content_store 	misses[25] 	9274
scalar tree_4_3_u06_r3_network.node[25].content_store 	decision_yes[25] 	94
scalar tree_4_3_u06_r3_network.node[25].content_store 	decision_no[25] 	9180
scalar tree_4_3_u06_r3_network.node[25].content_store 	decision_ratio[25] 	0.010135863704982
scalar tree_4_3_u06_r3_network.node[26].core_layer 	interests[26] 	12012
scalar tree_4_3_u06_r3_network.node[26].core_layer 	data[26] 	9074
scalar tree_4_3_u06_r3_network.node[26].content_store 	p_hit[26] 	0.24458874458874
scalar tree_4_3_u06_r3_network.node[26].content_store 	hits[26] 	2938
scalar tree_4_3_u06_r3_network.node[26].content_store 	misses[26] 	9074
scalar tree_4_3_u06_r3_network.node[26].content_store 	decision_yes[26] 	80
scalar tree_4_3_u06_r3_network.node[26].content_store 	decision_no[26] 	8994
scalar tree_4_3_u06_r3_network.node[26].content_store 	decision_ratio[26] 	0.0088163985012123
scalar tree_4_3_u06_r3_network.node[27].core_layer 	interests[27] 	12131
scalar tree_4_3_u06_r3_network.node[27].core_layer 	data[27] 	9215
scalar tree_4_3_u06_r3_network.node[27].content_store 	p_hit[27] 	0.2402934630286
scalar tree_4_3_u06_r3_network.node[27].content_store 	hits[27] 	2915
scalar tree_4_3_u06_r3_network.node[27].content_store 	misses[27] 	9216
scalar tree_4_3_u06_r3_network.node[27].content_store 	decision_yes[27] 	92
scalar tree_4_3_u06_r3_network.node[27].content_store 	decision_no[27] 	9123
scalar tree_4_3_u06_r3_network.node[27].content_store 	decision_ratio[27] 	0.0099837221920781
scalar tree_4_3_u06_r3_network.node[28].core_layer 	interests[28] 	11756
scalar tree_4_3_u06_r3_network.node[28].core_layer 	data[28] 	8968
scalar tree_4_3_u06_r3_network.node[28].content_store 	p_hit[28] 	0.23715549506635
scalar tree_4_3_u06_r3_network.node[28].content_store 	hits[28] 	2788
scalar tree_4_3_u06_r3_network.node[28].content_store 	misses[28] 	8968
scalar tree_4_3_u06_r3_network.node[28].content_store 	decision_yes[28] 	100
scalar tree_4_3_u06_r3_network.node[28].content_store 	decision_no[28] 	8868
scalar tree_4_3_u06_r3_network.node[28].content_store 	decision_ratio[28] 	0.011150758251561
scalar tree_4_3_u06_r3_network.node[29].core_layer 	interests[29] 	12017
scalar tree_4_3_u06_r3_network.node[29].core_layer 	data[29] 	9082
scalar tree_4_3_u06_r3_network.node[29].content_store 	p_hit[29] 	0.24423733044853
scalar tree_4_3_u06_r3_network.node[29].content_store 	hits[29] 	2935
scalar tree_4_3_u06_r3_network.node[29].content_store 	misses[29] 	9082
scalar tree_4_3_u06_r3_network.node[29].content_store 	decision_yes[29] 	84
scalar tree_4_3_u06_r3_network.node[29].content_store 	decision_no[29] 	8998
scalar tree_4_3_u06_r3_network.node[29].content_store 	decision_ratio[29] 	0.0092490640828011
scalar tree_4_3_u06_r3_network.node[30].core_layer 	interests[30] 	12041
scalar tree_4_3_u06_r3_network.node[30].core_layer 	data[30] 	9124
scalar tree_4_3_u06_r3_network.node[30].content_store 	p_hit[30] 	0.24225562660909
scalar tree_4_3_u06_r3_network.node[30].content_store 	hits[30] 	2917
scalar tree_4_3_u06_r3_network.node[30].content_store 	misses[30] 	9124
scalar tree_4_3_u06_r3_network.node[30].content_store 	decision_yes[30] 	100
scalar tree_4_3_u06_r3_network.node[30].content_store 	decision_no[30] 	9024
scalar tree_4_3_u06_r3_network.node[30].content_store 	decision_ratio[30] 	0.01096010521701
scalar tree_4_3_u06_r3_network.node[31].core_layer 	interests[31] 	11816
scalar tree_4_3_u06_r3_network.node[31].core_layer 	data[31] 	9006
scalar tree_4_3_u06_r3_network.node[31].content_store 	p_hit[31] 	0.23781313473257
scalar tree_4_3_u06_r3_network.node[31].content_store 	hits[31] 	2810
scalar tree_4_3_u06_r3_network.node[31].content_store 	misses[31] 	9006
scalar tree_4_3_u06_r3_network.node[31].content_store 	decision_yes[31] 	86
scalar tree_4_3_u06_r3_network.node[31].content_store 	decision_no[31] 	8920
scalar tree_4_3_u06_r3_network.node[31].content_store 	decision_ratio[31] 	0.0095491894292694
scalar tree_4_3_u06_r3_network.node[32].core_layer 	interests[32] 	12077
scalar tree_4_3_u06_r3_network.node[32].core_layer 	data[32] 	9170
scalar tree_4_3_u06_r3_network.node[32].content_store 	p_hit[32] 	0.24062267119318
scalar tree_4_3_u06_r3_network.node[32].content_store 	hits[32] 	2906
scalar tree_4_3_u06_r3_network.node[32].content_store 	misses[32] 	9171
scalar tree_4_3_u06_r3_network.node[32].content_store 	decision_yes[32] 	74
scalar tree_4_3_u06_r3_network.node[32].content_store 	decision_no[32] 	9096
scalar tree_4_3_u06_r3_network.node[32].content_store 	decision_ratio[32] 	0.0080697928026172
scalar tree_4_3_u06_r3_network.node[33].core_layer 	interests[33] 	12056
scalar tree_4_3_u06_r3_network.node[33].core_layer 	data[33] 	9029
scalar tree_4_3_u06_r3_network.node[33].content_store 	p_hit[33] 	0.25107830126078
scalar tree_4_3_u06_r3_network.node[33].content_store 	hits[33] 	3027
scalar tree_4_3_u06_r3_network.node[33].content_store 	misses[33] 	9029
scalar tree_4_3_u06_r3_network.node[33].content_store 	decision_yes[33] 	86
scalar tree_4_3_u06_r3_network.node[33].content_store 	decision_no[33] 	8943
scalar tree_4_3_u06_r3_network.node[33].content_store 	decision_ratio[33] 	0.0095248643260605
scalar tree_4_3_u06_r3_network.node[34].core_layer 	interests[34] 	12112
scalar tree_4_3_u06_r3_network.node[34].core_layer 	data[34] 	9246
scalar tree_4_3_u06_r3_network.node[34].content_store 	p_hit[34] 	0.2366248348745
scalar tree_4_3_u06_r3_network.node[34].content_store 	hits[34] 	2866
scalar tree_4_3_u06_r3_network.node[34].content_store 	misses[34] 	9246
scalar tree_4_3_u06_r3_network.node[34].content_store 	decision_yes[34] 	83
scalar tree_4_3_u06_r3_network.node[34].content_store 	decision_no[34] 	9163
scalar tree_4_3_u06_r3_network.node[34].content_store 	decision_ratio[34] 	0.008976854856154
scalar tree_4_3_u06_r3_network.node[35].core_layer 	interests[35] 	11845
scalar tree_4_3_u06_r3_network.node[35].core_layer 	data[35] 	9153
scalar tree_4_3_u06_r3_network.node[35].content_store 	p_hit[35] 	0.22718446601942
scalar tree_4_3_u06_r3_network.node[35].content_store 	hits[35] 	2691
scalar tree_4_3_u06_r3_network.node[35].content_store 	misses[35] 	9154
scalar tree_4_3_u06_r3_network.node[35].content_store 	decision_yes[35] 	81
scalar tree_4_3_u06_r3_network.node[35].content_store 	decision_no[35] 	9072
scalar tree_4_3_u06_r3_network.node[35].content_store 	decision_ratio[35] 	0.0088495575221239
scalar tree_4_3_u06_r3_network.node[36].core_layer 	interests[36] 	11834
scalar tree_4_3_u06_r3_network.node[36].core_layer 	data[36] 	8877
scalar tree_4_3_u06_r3_network.node[36].content_store 	p_hit[36] 	0.24987324657766
scalar tree_4_3_u06_r3_network.node[36].content_store 	hits[36] 	2957
scalar tree_4_3_u06_r3_network.node[36].content_store 	misses[36] 	8877
scalar tree_4_3_u06_r3_network.node[36].content_store 	decision_yes[36] 	77
scalar tree_4_3_u06_r3_network.node[36].content_store 	decision_no[36] 	8800
scalar tree_4_3_u06_r3_network.node[36].content_store 	decision_ratio[36] 	0.0086741016109046
scalar tree_4_3_u06_r3_network.node[37].core_layer 	interests[37] 	12053
scalar tree_4_3_u06_r3_network.node[37].core_layer 	data[37] 	9229
scalar tree_4_3_u06_r3_network.node[37].content_store 	p_hit[37] 	0.23438148178877
scalar tree_4_3_u06_r3_network.node[37].content_store 	hits[37] 	2825
scalar tree_4_3_u06_r3_network.node[37].content_store 	misses[37] 	9228
scalar tree_4_3_u06_r3_network.node[37].content_store 	decision_yes[37] 	85
scalar tree_4_3_u06_r3_network.node[37].content_store 	decision_no[37] 	9144
scalar tree_4_3_u06_r3_network.node[37].content_store 	decision_ratio[37] 	0.0092100986022321
scalar tree_4_3_u06_r3_network.node[38].core_layer 	interests[38] 	12030
scalar tree_4_3_u06_r3_network.node[38].core_layer 	data[38] 	9161
scalar tree_4_3_u06_r3_network.node[38].content_store 	p_hit[38] 	0.23840399002494
scalar tree_4_3_u06_r3_network.node[38].content_store 	hits[38] 	2868
scalar tree_4_3_u06_r3_network.node[38].content_store 	misses[38] 	9162
scalar tree_4_3_u06_r3_network.node[38].content_store 	decision_yes[38] 	87
scalar tree_4_3_u06_r3_network.node[38].content_store 	decision_no[38] 	9074
scalar tree_4_3_u06_r3_network.node[38].content_store 	decision_ratio[38] 	0.0094967798275297
scalar tree_4_3_u06_r3_network.node[39].core_layer 	interests[39] 	12120
scalar tree_4_3_u06_r3_network.node[39].core_layer 	data[39] 	9181
scalar tree_4_3_u06_r3_network.node[39].content_store 	p_hit[39] 	0.24249174917492
scalar tree_4_3_u06_r3_network.node[39].content_store 	hits[39] 	2939
scalar tree_4_3_u06_r3_network.node[39].content_store 	misses[39] 	9181
scalar tree_4_3_u06_r3_network.node[39].content_store 	decision_yes[39] 	99
scalar tree_4_3_u06_r3_network.node[39].content_store 	decision_no[39] 	9082
scalar tree_4_3_u06_r3_network.node[39].content_store 	decision_ratio[39] 	0.010783139091602
scalar tree_4_3_u06_r3_network.client[13] 	hdistance[13] 	2.8384563418341
scalar tree_4_3_u06_r3_network.client[13] 	downloads[13] 	11842
scalar tree_4_3_u06_r3_network.client[13] 	avg_time[13] 	0.0043268754
scalar tree_4_3_u06_r3_network.client[14] 	hdistance[14] 	2.8510532426605
scalar tree_4_3_u06_r3_network.client[14] 	downloads[14] 	12058
scalar tree_4_3_u06_r3_network.client[14] 	avg_time[14] 	0.004338677492
scalar tree_4_3_u06_r3_network.client[15] 	hdistance[15] 	2.8429179534263
scalar tree_4_3_u06_r3_network.client[15] 	downloads[15] 	11981
scalar tree_4_3_u06_r3_network.client[15] 	avg_time[15] 	0.0043322107
scalar tree_4_3_u06_r3_network.client[16] 	hdistance[16] 	2.8450058362515
scalar tree_4_3_u06_r3_network.client[16] 	downloads[16] 	11994
scalar tree_4_3_u06_r3_network.client[16] 	avg_time[16] 	0.004332329815
scalar tree_4_3_u06_r3_network.client[17] 	hdistance[17] 	2.8664182194617
scalar tree_4_3_u06_r3_network.client[17] 	downloads[17] 	12075
scalar tree_4_3_u06_r3_network.client[17] 	avg_time[17] 	0.004358423484
scalar tree_4_3_u06_r3_network.client[18] 	hdistance[18] 	2.8539961178158
scalar tree_4_3_u06_r3_network.client[18] 	downloads[18] 	11849
scalar tree_4_3_u06_r3_network.client[18] 	avg_time[18] 	0.004344836269
scalar tree_4_3_u06_r3_network.client[19] 	hdistance[19] 	2.8518736346832
scalar tree_4_3_u06_r3_network.client[19] 	downloads[19] 	11902
scalar tree_4_3_u06_r3_network.client[19] 	avg_time[19] 	0.004343167347
scalar tree_4_3_u06_r3_network.client[20] 	hdistance[20] 	2.8776191668754
scalar tree_4_3_u06_r3_network.client[20] 	downloads[20] 	11979
scalar tree_4_3_u06_r3_network.client[20] 	avg_time[20] 	0.00438125936
scalar tree_4_3_u06_r3_network.client[21] 	hdistance[21] 	2.8712290271923
scalar tree_4_3_u06_r3_network.client[21] 	downloads[21] 	12099
scalar tree_4_3_u06_r3_network.client[21] 	avg_time[21] 	0.004368559461
scalar tree_4_3_u06_r3_network.client[22] 	hdistance[22] 	2.8655600295834
scalar tree_4_3_u06_r3_network.client[22] 	downloads[22] 	12169
scalar tree_4_3_u06_r3_network.client[22] 	avg_time[22] 	0.00435318951
scalar tree_4_3_u06_r3_network.client[23] 	hdistance[23] 	2.8521371769384
scalar tree_4_3_u06_r3_network.client[23] 	downloads[23] 	12072
scalar tree_4_3_u06_r3_network.client[23] 	avg_time[23] 	0.004341779623
scalar tree_4_3_u06_r3_network.client[24] 	hdistance[24] 	2.8679644864381
scalar tree_4_3_u06_r3_network.client[24] 	downloads[24] 	12277
scalar tree_4_3_u06_r3_network.client[24] 	avg_time[24] 	0.004363440776
scalar tree_4_3_u06_r3_network.client[25] 	hdistance[25] 	2.8938687104299
scalar tree_4_3_u06_r3_network.client[25] 	downloads[25] 	12004
scalar tree_4_3_u06_r3_network.client[25] 	avg_time[25] 	0.004406528138
scalar tree_4_3_u06_r3_network.client[26] 	hdistance[26] 	2.8459873459873
scalar tree_4_3_u06_r3_network.client[26] 	downloads[26] 	12012
scalar tree_4_3_u06_r3_network.client[26] 	avg_time[26] 	0.004329833809
scalar tree_4_3_u06_r3_network.client[27] 	hdistance[27] 	2.8436933223413
scalar tree_4_3_u06_r3_network.client[27] 	downloads[27] 	12130
scalar tree_4_3_u06_r3_network.client[27] 	avg_time[27] 	0.004330747206
scalar tree_4_3_u06_r3_network.client[28] 	hdistance[28] 	2.8664511738687
scalar tree_4_3_u06_r3_network.client[28] 	downloads[28] 	11756
scalar tree_4_3_u06_r3_network.client[28] 	avg_time[28] 	0.004361096531
scalar tree_4_3_u06_r3_network.client[29] 	hdistance[29] 	2.8387284680037
scalar tree_4_3_u06_r3_network.client[29] 	downloads[29] 	12017
scalar tree_4_3_u06_r3_network.client[29] 	avg_time[29] 	0.004320460461
scalar tree_4_3_u06_r3_network.client[30] 	hdistance[30] 	2.8482684162445
scalar tree_4_3_u06_r3_network.client[30] 	downloads[30] 	12041
scalar tree_4_3_u06_r3_network.client[30] 	avg_time[30] 	0.004333972174
scalar tree_4_3_u06_r3_network.client[31] 	hdistance[31] 	2.8510494245092
scalar tree_4_3_u06_r3_network.client[31] 	downloads[31] 	11816
scalar tree_4_3_u06_r3_network.client[31] 	avg_time[31] 	0.004343260423
scalar tree_4_3_u06_r3_network.client[32] 	hdistance[32] 	2.8549188473004
scalar tree_4_3_u06_r3_network.client[32] 	downloads[32] 	12076
scalar tree_4_3_u06_r3_network.client[32] 	avg_time[32] 	0.00434181497
scalar tree_4_3_u06_r3_network.client[33] 	hdistance[33] 	2.8124585268746
scalar tree_4_3_u06_r3_network.client[33] 	downloads[33] 	12056
scalar tree_4_3_u06_r3_network.client[33] 	avg_time[33] 	0.004280852976
scalar tree_4_3_u06_r3_network.client[34] 	hdistance[34] 	2.8669088507266
scalar tree_4_3_u06_r3_network.client[34] 	downloads[34] 	12112
scalar tree_4_3_u06_r3_network.client[34] 	avg_time[34] 	0.00436492434
scalar tree_4_3_u06_r3_network.client[35] 	hdistance[35] 	2.8903242147923
scalar tree_4_3_u06_r3_network.client[35] 	downloads[35] 	11844
scalar tree_4_3_u06_r3_network.client[35] 	avg_time[35] 	0.004401381698
scalar tree_4_3_u06_r3_network.client[36] 	hdistance[36] 	2.8287983775562
scalar tree_4_3_u06_r3_network.client[36] 	downloads[36] 	11834
scalar tree_4_3_u06_r3_network.client[36] 	avg_time[36] 	0.004302866893
scalar tree_4_3_u06_r3_network.client[37] 	hdistance[37] 	2.8392234942758
scalar tree_4_3_u06_r3_network.client[37] 	downloads[37] 	12054
scalar tree_4_3_u06_r3_network.client[37] 	avg_time[37] 	0.004325034305
scalar tree_4_3_u06_r3_network.client[38] 	hdistance[38] 	2.8590905312162
scalar tree_4_3_u06_r3_network.client[38] 	downloads[38] 	12029
scalar tree_4_3_u06_r3_network.client[38] 	avg_time[38] 	0.004351952362
scalar tree_4_3_u06_r3_network.client[39] 	hdistance[39] 	2.8494224422442
scalar tree_4_3_u06_r3_network.client[39] 	downloads[39] 	12120
scalar tree_4_3_u06_r3_network.client[39] 	avg_time[39] 	0.004334485408
