version 2
run General-16-20160820-02:49:29-14346
attr a 0.9
attr cd fix0.1
attr configname General
attr cr lru
attr datetime 20160820-02:49:29
attr experiment General
attr fsize 1
attr inifile hw5115/scenario_A/SPR-FIX0.1.ini
attr iterationvars "$name=tree_4_3, $un=00, $rep=17, $cd=fix0.1, $cr=lru, $fsize=1, $a=0.9, $sl=spr, $ttl=1000, $variance=0.05"
attr iterationvars2 "$name=tree_4_3, $un=00, $rep=17, $cd=fix0.1, $cr=lru, $fsize=1, $a=0.9, $sl=spr, $ttl=1000, $variance=0.05, $repetition=0"
attr measurement "$name=tree_4_3, $un=00, $rep=17, $cd=fix0.1, $cr=lru, $fsize=1, $a=0.9, $sl=spr, $ttl=1000, $variance=0.05"
attr name tree_4_3
attr network networks.${name}_u${un}_r${rep}_network
attr processid 14346
attr rep 17
attr repetition 0
attr replication #0
attr resultdir results
attr runnumber 16
attr seedset 17
attr sl spr
attr ttl 1000
attr un 00
attr variance 0.05

scalar . 	a 	0.9
scalar . 	fsize 	1
scalar . 	rep 	17
scalar . 	ttl 	1000
scalar . 	un 	00
scalar . 	variance 	0.05
scalar tree_4_3_u00_r17_network.content_distribution 	repo-0 	0
scalar tree_4_3_u00_r17_network.content_distribution 	client-0 	13
scalar tree_4_3_u00_r17_network.content_distribution 	client-1 	14
scalar tree_4_3_u00_r17_network.content_distribution 	client-2 	15
scalar tree_4_3_u00_r17_network.content_distribution 	client-3 	16
scalar tree_4_3_u00_r17_network.content_distribution 	client-4 	17
scalar tree_4_3_u00_r17_network.content_distribution 	client-5 	18
scalar tree_4_3_u00_r17_network.content_distribution 	client-6 	19
scalar tree_4_3_u00_r17_network.content_distribution 	client-7 	20
scalar tree_4_3_u00_r17_network.content_distribution 	client-8 	21
scalar tree_4_3_u00_r17_network.content_distribution 	client-9 	22
scalar tree_4_3_u00_r17_network.content_distribution 	client-10 	23
scalar tree_4_3_u00_r17_network.content_distribution 	client-11 	24
scalar tree_4_3_u00_r17_network.content_distribution 	client-12 	25
scalar tree_4_3_u00_r17_network.content_distribution 	client-13 	26
scalar tree_4_3_u00_r17_network.content_distribution 	client-14 	27
scalar tree_4_3_u00_r17_network.content_distribution 	client-15 	28
scalar tree_4_3_u00_r17_network.content_distribution 	client-16 	29
scalar tree_4_3_u00_r17_network.content_distribution 	client-17 	30
scalar tree_4_3_u00_r17_network.content_distribution 	client-18 	31
scalar tree_4_3_u00_r17_network.content_distribution 	client-19 	32
scalar tree_4_3_u00_r17_network.content_distribution 	client-20 	33
scalar tree_4_3_u00_r17_network.content_distribution 	client-21 	34
scalar tree_4_3_u00_r17_network.content_distribution 	client-22 	35
scalar tree_4_3_u00_r17_network.content_distribution 	client-23 	36
scalar tree_4_3_u00_r17_network.content_distribution 	client-24 	37
scalar tree_4_3_u00_r17_network.content_distribution 	client-25 	38
scalar tree_4_3_u00_r17_network.content_distribution 	client-26 	39
scalar tree_4_3_u00_r17_network.content_distribution 	repo-0_card 	100000
scalar tree_4_3_u00_r17_network.content_distribution 	repo-0_price 	0
scalar tree_4_3_u00_r17_network.statistics 	stabilization_time 	778.6
scalar tree_4_3_u00_r17_network.statistics 	p_hit 	0.14912903410254
scalar tree_4_3_u00_r17_network.statistics 	interests 	26785.5
scalar tree_4_3_u00_r17_network.statistics 	data 	18690.95
scalar tree_4_3_u00_r17_network.statistics 	hdistance 	3.0441828988476
scalar tree_4_3_u00_r17_network.statistics 	avg_time 	0.004618409306
scalar tree_4_3_u00_r17_network.statistics 	downloads 	323761
scalar tree_4_3_u00_r17_network.statistics 	total_cost 	0
scalar tree_4_3_u00_r17_network.statistics 	total_replicas 	100000
scalar tree_4_3_u00_r17_network.statistics 	inner_hit 	0.26513076003595
scalar tree_4_3_u00_r17_network.node[0].core_layer 	interests[0] 	242487
scalar tree_4_3_u00_r17_network.node[0].core_layer 	repo_load[0] 	237922
scalar tree_4_3_u00_r17_network.node[0].core_layer 	data[0] 	0
scalar tree_4_3_u00_r17_network.node[0].core_layer 	repo_int[0] 	237922
scalar tree_4_3_u00_r17_network.node[0].content_store 	p_hit[0] 	0.018825751483585
scalar tree_4_3_u00_r17_network.node[0].content_store 	hits[0] 	4565
scalar tree_4_3_u00_r17_network.node[0].content_store 	misses[0] 	237922
scalar tree_4_3_u00_r17_network.node[0].content_store 	decision_yes[0] 	23842
scalar tree_4_3_u00_r17_network.node[0].content_store 	decision_no[0] 	214080
scalar tree_4_3_u00_r17_network.node[0].content_store 	decision_ratio[0] 	0.10020931229563
scalar tree_4_3_u00_r17_network.node[1].core_layer 	interests[1] 	82823
scalar tree_4_3_u00_r17_network.node[1].core_layer 	data[1] 	80878
scalar tree_4_3_u00_r17_network.node[1].content_store 	p_hit[1] 	0.023387223355831
scalar tree_4_3_u00_r17_network.node[1].content_store 	hits[1] 	1937
scalar tree_4_3_u00_r17_network.node[1].content_store 	misses[1] 	80886
scalar tree_4_3_u00_r17_network.node[1].content_store 	decision_yes[1] 	8024
scalar tree_4_3_u00_r17_network.node[1].content_store 	decision_no[1] 	72854
scalar tree_4_3_u00_r17_network.node[1].content_store 	decision_ratio[1] 	0.099211157545933
scalar tree_4_3_u00_r17_network.node[2].core_layer 	interests[2] 	82421
scalar tree_4_3_u00_r17_network.node[2].core_layer 	data[2] 	80623
scalar tree_4_3_u00_r17_network.node[2].content_store 	p_hit[2] 	0.021814828745101
scalar tree_4_3_u00_r17_network.node[2].content_store 	hits[2] 	1798
scalar tree_4_3_u00_r17_network.node[2].content_store 	misses[2] 	80623
scalar tree_4_3_u00_r17_network.node[2].content_store 	decision_yes[2] 	7969
scalar tree_4_3_u00_r17_network.node[2].content_store 	decision_no[2] 	72654
scalar tree_4_3_u00_r17_network.node[2].content_store 	decision_ratio[2] 	0.098842761990995
scalar tree_4_3_u00_r17_network.node[3].core_layer 	interests[3] 	82947
scalar tree_4_3_u00_r17_network.node[3].core_layer 	data[3] 	80986
scalar tree_4_3_u00_r17_network.node[3].content_store 	p_hit[3] 	0.023629546577935
scalar tree_4_3_u00_r17_network.node[3].content_store 	hits[3] 	1960
scalar tree_4_3_u00_r17_network.node[3].content_store 	misses[3] 	80987
scalar tree_4_3_u00_r17_network.node[3].content_store 	decision_yes[3] 	8161
scalar tree_4_3_u00_r17_network.node[3].content_store 	decision_no[3] 	72825
scalar tree_4_3_u00_r17_network.node[3].content_store 	decision_ratio[3] 	0.10077050354382
scalar tree_4_3_u00_r17_network.node[4].core_layer 	interests[4] 	28530
scalar tree_4_3_u00_r17_network.node[4].core_layer 	data[4] 	27451
scalar tree_4_3_u00_r17_network.node[4].content_store 	p_hit[4] 	0.037784787942517
scalar tree_4_3_u00_r17_network.node[4].content_store 	hits[4] 	1078
scalar tree_4_3_u00_r17_network.node[4].content_store 	misses[4] 	27452
scalar tree_4_3_u00_r17_network.node[4].content_store 	decision_yes[4] 	2764
scalar tree_4_3_u00_r17_network.node[4].content_store 	decision_no[4] 	24687
scalar tree_4_3_u00_r17_network.node[4].content_store 	decision_ratio[4] 	0.10068849950821
scalar tree_4_3_u00_r17_network.node[5].core_layer 	interests[5] 	28607
scalar tree_4_3_u00_r17_network.node[5].core_layer 	data[5] 	27684
scalar tree_4_3_u00_r17_network.node[5].content_store 	p_hit[5] 	0.032264830286294
scalar tree_4_3_u00_r17_network.node[5].content_store 	hits[5] 	923
scalar tree_4_3_u00_r17_network.node[5].content_store 	misses[5] 	27684
scalar tree_4_3_u00_r17_network.node[5].content_store 	decision_yes[5] 	2703
scalar tree_4_3_u00_r17_network.node[5].content_store 	decision_no[5] 	24981
scalar tree_4_3_u00_r17_network.node[5].content_store 	decision_ratio[5] 	0.09763762462072
scalar tree_4_3_u00_r17_network.node[6].core_layer 	interests[6] 	28654
scalar tree_4_3_u00_r17_network.node[6].core_layer 	data[6] 	27687
scalar tree_4_3_u00_r17_network.node[6].content_store 	p_hit[6] 	0.033642772387799
scalar tree_4_3_u00_r17_network.node[6].content_store 	hits[6] 	964
scalar tree_4_3_u00_r17_network.node[6].content_store 	misses[6] 	27690
scalar tree_4_3_u00_r17_network.node[6].content_store 	decision_yes[6] 	2807
scalar tree_4_3_u00_r17_network.node[6].content_store 	decision_no[6] 	24880
scalar tree_4_3_u00_r17_network.node[6].content_store 	decision_ratio[6] 	0.10138332069202
scalar tree_4_3_u00_r17_network.node[7].core_layer 	interests[7] 	28503
scalar tree_4_3_u00_r17_network.node[7].core_layer 	data[7] 	27473
scalar tree_4_3_u00_r17_network.node[7].content_store 	p_hit[7] 	0.036136547030137
scalar tree_4_3_u00_r17_network.node[7].content_store 	hits[7] 	1030
scalar tree_4_3_u00_r17_network.node[7].content_store 	misses[7] 	27473
scalar tree_4_3_u00_r17_network.node[7].content_store 	decision_yes[7] 	2695
scalar tree_4_3_u00_r17_network.node[7].content_store 	decision_no[7] 	24778
scalar tree_4_3_u00_r17_network.node[7].content_store 	decision_ratio[7] 	0.098096312743421
scalar tree_4_3_u00_r17_network.node[8].core_layer 	interests[8] 	28834
scalar tree_4_3_u00_r17_network.node[8].core_layer 	data[8] 	27840
scalar tree_4_3_u00_r17_network.node[8].content_store 	p_hit[8] 	0.034438510092252
scalar tree_4_3_u00_r17_network.node[8].content_store 	hits[8] 	993
scalar tree_4_3_u00_r17_network.node[8].content_store 	misses[8] 	27841
scalar tree_4_3_u00_r17_network.node[8].content_store 	decision_yes[8] 	2655
scalar tree_4_3_u00_r17_network.node[8].content_store 	decision_no[8] 	25185
scalar tree_4_3_u00_r17_network.node[8].content_store 	decision_ratio[8] 	0.095366379310345
scalar tree_4_3_u00_r17_network.node[9].core_layer 	interests[9] 	28044
scalar tree_4_3_u00_r17_network.node[9].core_layer 	data[9] 	27108
scalar tree_4_3_u00_r17_network.node[9].content_store 	p_hit[9] 	0.033340464983597
scalar tree_4_3_u00_r17_network.node[9].content_store 	hits[9] 	935
scalar tree_4_3_u00_r17_network.node[9].content_store 	misses[9] 	27109
scalar tree_4_3_u00_r17_network.node[9].content_store 	decision_yes[9] 	2703
scalar tree_4_3_u00_r17_network.node[9].content_store 	decision_no[9] 	24405
scalar tree_4_3_u00_r17_network.node[9].content_store 	decision_ratio[9] 	0.09971226206286
scalar tree_4_3_u00_r17_network.node[10].core_layer 	interests[10] 	28502
scalar tree_4_3_u00_r17_network.node[10].core_layer 	data[10] 	27577
scalar tree_4_3_u00_r17_network.node[10].content_store 	p_hit[10] 	0.03234860711529
scalar tree_4_3_u00_r17_network.node[10].content_store 	hits[10] 	922
scalar tree_4_3_u00_r17_network.node[10].content_store 	misses[10] 	27580
scalar tree_4_3_u00_r17_network.node[10].content_store 	decision_yes[10] 	2674
scalar tree_4_3_u00_r17_network.node[10].content_store 	decision_no[10] 	24903
scalar tree_4_3_u00_r17_network.node[10].content_store 	decision_ratio[10] 	0.0969648620227
scalar tree_4_3_u00_r17_network.node[11].core_layer 	interests[11] 	28705
scalar tree_4_3_u00_r17_network.node[11].core_layer 	data[11] 	27835
scalar tree_4_3_u00_r17_network.node[11].content_store 	p_hit[11] 	0.030273471520641
scalar tree_4_3_u00_r17_network.node[11].content_store 	hits[11] 	869
scalar tree_4_3_u00_r17_network.node[11].content_store 	misses[11] 	27836
scalar tree_4_3_u00_r17_network.node[11].content_store 	decision_yes[11] 	2712
scalar tree_4_3_u00_r17_network.node[11].content_store 	decision_no[11] 	25123
scalar tree_4_3_u00_r17_network.node[11].content_store 	decision_ratio[11] 	0.097431291539429
scalar tree_4_3_u00_r17_network.node[12].core_layer 	interests[12] 	28588
scalar tree_4_3_u00_r17_network.node[12].core_layer 	data[12] 	27533
scalar tree_4_3_u00_r17_network.node[12].content_store 	p_hit[12] 	0.036833636490835
scalar tree_4_3_u00_r17_network.node[12].content_store 	hits[12] 	1053
scalar tree_4_3_u00_r17_network.node[12].content_store 	misses[12] 	27535
scalar tree_4_3_u00_r17_network.node[12].content_store 	decision_yes[12] 	2757
scalar tree_4_3_u00_r17_network.node[12].content_store 	decision_no[12] 	24776
scalar tree_4_3_u00_r17_network.node[12].content_store 	decision_ratio[12] 	0.10013438419351
scalar tree_4_3_u00_r17_network.node[13].core_layer 	interests[13] 	11961
scalar tree_4_3_u00_r17_network.node[13].core_layer 	data[13] 	9484
scalar tree_4_3_u00_r17_network.node[13].content_store 	p_hit[13] 	0.20708970821838
scalar tree_4_3_u00_r17_network.node[13].content_store 	hits[13] 	2477
scalar tree_4_3_u00_r17_network.node[13].content_store 	misses[13] 	9484
scalar tree_4_3_u00_r17_network.node[13].content_store 	decision_yes[13] 	955
scalar tree_4_3_u00_r17_network.node[13].content_store 	decision_no[13] 	8529
scalar tree_4_3_u00_r17_network.node[13].content_store 	decision_ratio[13] 	0.1006959088992
scalar tree_4_3_u00_r17_network.node[14].core_layer 	interests[14] 	11928
scalar tree_4_3_u00_r17_network.node[14].core_layer 	data[14] 	9478
scalar tree_4_3_u00_r17_network.node[14].content_store 	p_hit[14] 	0.20539906103286
scalar tree_4_3_u00_r17_network.node[14].content_store 	hits[14] 	2450
scalar tree_4_3_u00_r17_network.node[14].content_store 	misses[14] 	9478
scalar tree_4_3_u00_r17_network.node[14].content_store 	decision_yes[14] 	947
scalar tree_4_3_u00_r17_network.node[14].content_store 	decision_no[14] 	8531
scalar tree_4_3_u00_r17_network.node[14].content_store 	decision_ratio[14] 	0.099915594007175
scalar tree_4_3_u00_r17_network.node[15].core_layer 	interests[15] 	12092
scalar tree_4_3_u00_r17_network.node[15].core_layer 	data[15] 	9568
scalar tree_4_3_u00_r17_network.node[15].content_store 	p_hit[15] 	0.20873304664241
scalar tree_4_3_u00_r17_network.node[15].content_store 	hits[15] 	2524
scalar tree_4_3_u00_r17_network.node[15].content_store 	misses[15] 	9568
scalar tree_4_3_u00_r17_network.node[15].content_store 	decision_yes[15] 	923
scalar tree_4_3_u00_r17_network.node[15].content_store 	decision_no[15] 	8645
scalar tree_4_3_u00_r17_network.node[15].content_store 	decision_ratio[15] 	0.096467391304348
scalar tree_4_3_u00_r17_network.node[16].core_layer 	interests[16] 	12147
scalar tree_4_3_u00_r17_network.node[16].core_layer 	data[16] 	9682
scalar tree_4_3_u00_r17_network.node[16].content_store 	p_hit[16] 	0.20293076479789
scalar tree_4_3_u00_r17_network.node[16].content_store 	hits[16] 	2465
scalar tree_4_3_u00_r17_network.node[16].content_store 	misses[16] 	9682
scalar tree_4_3_u00_r17_network.node[16].content_store 	decision_yes[16] 	973
scalar tree_4_3_u00_r17_network.node[16].content_store 	decision_no[16] 	8709
scalar tree_4_3_u00_r17_network.node[16].content_store 	decision_ratio[16] 	0.10049576533774
scalar tree_4_3_u00_r17_network.node[17].core_layer 	interests[17] 	11862
scalar tree_4_3_u00_r17_network.node[17].core_layer 	data[17] 	9407
scalar tree_4_3_u00_r17_network.node[17].content_store 	p_hit[17] 	0.20696341257798
scalar tree_4_3_u00_r17_network.node[17].content_store 	hits[17] 	2455
scalar tree_4_3_u00_r17_network.node[17].content_store 	misses[17] 	9407
scalar tree_4_3_u00_r17_network.node[17].content_store 	decision_yes[17] 	937
scalar tree_4_3_u00_r17_network.node[17].content_store 	decision_no[17] 	8470
scalar tree_4_3_u00_r17_network.node[17].content_store 	decision_ratio[17] 	0.099606675879664
scalar tree_4_3_u00_r17_network.node[18].core_layer 	interests[18] 	11963
scalar tree_4_3_u00_r17_network.node[18].core_layer 	data[18] 	9518
scalar tree_4_3_u00_r17_network.node[18].content_store 	p_hit[18] 	0.20438017219761
scalar tree_4_3_u00_r17_network.node[18].content_store 	hits[18] 	2445
scalar tree_4_3_u00_r17_network.node[18].content_store 	misses[18] 	9518
scalar tree_4_3_u00_r17_network.node[18].content_store 	decision_yes[18] 	959
scalar tree_4_3_u00_r17_network.node[18].content_store 	decision_no[18] 	8559
scalar tree_4_3_u00_r17_network.node[18].content_store 	decision_ratio[18] 	0.10075646144148
scalar tree_4_3_u00_r17_network.node[19].core_layer 	interests[19] 	12006
scalar tree_4_3_u00_r17_network.node[19].core_layer 	data[19] 	9563
scalar tree_4_3_u00_r17_network.node[19].content_store 	p_hit[19] 	0.20339830084958
scalar tree_4_3_u00_r17_network.node[19].content_store 	hits[19] 	2442
scalar tree_4_3_u00_r17_network.node[19].content_store 	misses[19] 	9564
scalar tree_4_3_u00_r17_network.node[19].content_store 	decision_yes[19] 	997
scalar tree_4_3_u00_r17_network.node[19].content_store 	decision_no[19] 	8566
scalar tree_4_3_u00_r17_network.node[19].content_store 	decision_ratio[19] 	0.10425598661508
scalar tree_4_3_u00_r17_network.node[20].core_layer 	interests[20] 	12020
scalar tree_4_3_u00_r17_network.node[20].core_layer 	data[20] 	9607
scalar tree_4_3_u00_r17_network.node[20].content_store 	p_hit[20] 	0.20066555740433
scalar tree_4_3_u00_r17_network.node[20].content_store 	hits[20] 	2412
scalar tree_4_3_u00_r17_network.node[20].content_store 	misses[20] 	9608
scalar tree_4_3_u00_r17_network.node[20].content_store 	decision_yes[20] 	982
scalar tree_4_3_u00_r17_network.node[20].content_store 	decision_no[20] 	8625
scalar tree_4_3_u00_r17_network.node[20].content_store 	decision_ratio[20] 	0.10221713334027
scalar tree_4_3_u00_r17_network.node[21].core_layer 	interests[21] 	11951
scalar tree_4_3_u00_r17_network.node[21].core_layer 	data[21] 	9483
scalar tree_4_3_u00_r17_network.node[21].content_store 	p_hit[21] 	0.20650991548824
scalar tree_4_3_u00_r17_network.node[21].content_store 	hits[21] 	2468
scalar tree_4_3_u00_r17_network.node[21].content_store 	misses[21] 	9483
scalar tree_4_3_u00_r17_network.node[21].content_store 	decision_yes[21] 	928
scalar tree_4_3_u00_r17_network.node[21].content_store 	decision_no[21] 	8555
scalar tree_4_3_u00_r17_network.node[21].content_store 	decision_ratio[21] 	0.097859327217125
scalar tree_4_3_u00_r17_network.node[22].core_layer 	interests[22] 	11971
scalar tree_4_3_u00_r17_network.node[22].core_layer 	data[22] 	9563
scalar tree_4_3_u00_r17_network.node[22].content_store 	p_hit[22] 	0.20106925068917
scalar tree_4_3_u00_r17_network.node[22].content_store 	hits[22] 	2407
scalar tree_4_3_u00_r17_network.node[22].content_store 	misses[22] 	9564
scalar tree_4_3_u00_r17_network.node[22].content_store 	decision_yes[22] 	967
scalar tree_4_3_u00_r17_network.node[22].content_store 	decision_no[22] 	8596
scalar tree_4_3_u00_r17_network.node[22].content_store 	decision_ratio[22] 	0.10111889574401
scalar tree_4_3_u00_r17_network.node[23].core_layer 	interests[23] 	11898
scalar tree_4_3_u00_r17_network.node[23].core_layer 	data[23] 	9400
scalar tree_4_3_u00_r17_network.node[23].content_store 	p_hit[23] 	0.20995125231131
scalar tree_4_3_u00_r17_network.node[23].content_store 	hits[23] 	2498
scalar tree_4_3_u00_r17_network.node[23].content_store 	misses[23] 	9400
scalar tree_4_3_u00_r17_network.node[23].content_store 	decision_yes[23] 	893
scalar tree_4_3_u00_r17_network.node[23].content_store 	decision_no[23] 	8507
scalar tree_4_3_u00_r17_network.node[23].content_store 	decision_ratio[23] 	0.095
scalar tree_4_3_u00_r17_network.node[24].core_layer 	interests[24] 	12115
scalar tree_4_3_u00_r17_network.node[24].core_layer 	data[24] 	9540
scalar tree_4_3_u00_r17_network.node[24].content_store 	p_hit[24] 	0.21229880313661
scalar tree_4_3_u00_r17_network.node[24].content_store 	hits[24] 	2572
scalar tree_4_3_u00_r17_network.node[24].content_store 	misses[24] 	9543
scalar tree_4_3_u00_r17_network.node[24].content_store 	decision_yes[24] 	990
scalar tree_4_3_u00_r17_network.node[24].content_store 	decision_no[24] 	8550
scalar tree_4_3_u00_r17_network.node[24].content_store 	decision_ratio[24] 	0.10377358490566
scalar tree_4_3_u00_r17_network.node[25].core_layer 	interests[25] 	12107
scalar tree_4_3_u00_r17_network.node[25].core_layer 	data[25] 	9647
scalar tree_4_3_u00_r17_network.node[25].content_store 	p_hit[25] 	0.2031056413645
scalar tree_4_3_u00_r17_network.node[25].content_store 	hits[25] 	2459
scalar tree_4_3_u00_r17_network.node[25].content_store 	misses[25] 	9648
scalar tree_4_3_u00_r17_network.node[25].content_store 	decision_yes[25] 	980
scalar tree_4_3_u00_r17_network.node[25].content_store 	decision_no[25] 	8667
scalar tree_4_3_u00_r17_network.node[25].content_store 	decision_ratio[25] 	0.1015859852804
scalar tree_4_3_u00_r17_network.node[26].core_layer 	interests[26] 	12052
scalar tree_4_3_u00_r17_network.node[26].core_layer 	data[26] 	9612
scalar tree_4_3_u00_r17_network.node[26].content_store 	p_hit[26] 	0.20245602389645
scalar tree_4_3_u00_r17_network.node[26].content_store 	hits[26] 	2440
scalar tree_4_3_u00_r17_network.node[26].content_store 	misses[26] 	9612
scalar tree_4_3_u00_r17_network.node[26].content_store 	decision_yes[26] 	979
scalar tree_4_3_u00_r17_network.node[26].content_store 	decision_no[26] 	8633
scalar tree_4_3_u00_r17_network.node[26].content_store 	decision_ratio[26] 	0.10185185185185
scalar tree_4_3_u00_r17_network.node[27].core_layer 	interests[27] 	12107
scalar tree_4_3_u00_r17_network.node[27].core_layer 	data[27] 	9575
scalar tree_4_3_u00_r17_network.node[27].content_store 	p_hit[27] 	0.20921780787974
scalar tree_4_3_u00_r17_network.node[27].content_store 	hits[27] 	2533
scalar tree_4_3_u00_r17_network.node[27].content_store 	misses[27] 	9574
scalar tree_4_3_u00_r17_network.node[27].content_store 	decision_yes[27] 	1009
scalar tree_4_3_u00_r17_network.node[27].content_store 	decision_no[27] 	8566
scalar tree_4_3_u00_r17_network.node[27].content_store 	decision_ratio[27] 	0.10537859007833
scalar tree_4_3_u00_r17_network.node[28].core_layer 	interests[28] 	11764
scalar tree_4_3_u00_r17_network.node[28].core_layer 	data[28] 	9276
scalar tree_4_3_u00_r17_network.node[28].content_store 	p_hit[28] 	0.21149268956137
scalar tree_4_3_u00_r17_network.node[28].content_store 	hits[28] 	2488
scalar tree_4_3_u00_r17_network.node[28].content_store 	misses[28] 	9276
scalar tree_4_3_u00_r17_network.node[28].content_store 	decision_yes[28] 	863
scalar tree_4_3_u00_r17_network.node[28].content_store 	decision_no[28] 	8413
scalar tree_4_3_u00_r17_network.node[28].content_store 	decision_ratio[28] 	0.093035791289349
scalar tree_4_3_u00_r17_network.node[29].core_layer 	interests[29] 	11745
scalar tree_4_3_u00_r17_network.node[29].core_layer 	data[29] 	9197
scalar tree_4_3_u00_r17_network.node[29].content_store 	p_hit[29] 	0.21685823754789
scalar tree_4_3_u00_r17_network.node[29].content_store 	hits[29] 	2547
scalar tree_4_3_u00_r17_network.node[29].content_store 	misses[29] 	9198
scalar tree_4_3_u00_r17_network.node[29].content_store 	decision_yes[29] 	945
scalar tree_4_3_u00_r17_network.node[29].content_store 	decision_no[29] 	8252
scalar tree_4_3_u00_r17_network.node[29].content_store 	decision_ratio[29] 	0.10275089703164
scalar tree_4_3_u00_r17_network.node[30].core_layer 	interests[30] 	11989
scalar tree_4_3_u00_r17_network.node[30].core_layer 	data[30] 	9571
scalar tree_4_3_u00_r17_network.node[30].content_store 	p_hit[30] 	0.20160146801234
scalar tree_4_3_u00_r17_network.node[30].content_store 	hits[30] 	2417
scalar tree_4_3_u00_r17_network.node[30].content_store 	misses[30] 	9572
scalar tree_4_3_u00_r17_network.node[30].content_store 	decision_yes[30] 	958
scalar tree_4_3_u00_r17_network.node[30].content_store 	decision_no[30] 	8613
scalar tree_4_3_u00_r17_network.node[30].content_store 	decision_ratio[30] 	0.10009403406123
scalar tree_4_3_u00_r17_network.node[31].core_layer 	interests[31] 	12136
scalar tree_4_3_u00_r17_network.node[31].core_layer 	data[31] 	9585
scalar tree_4_3_u00_r17_network.node[31].content_store 	p_hit[31] 	0.21020105471325
scalar tree_4_3_u00_r17_network.node[31].content_store 	hits[31] 	2551
scalar tree_4_3_u00_r17_network.node[31].content_store 	misses[31] 	9585
scalar tree_4_3_u00_r17_network.node[31].content_store 	decision_yes[31] 	929
scalar tree_4_3_u00_r17_network.node[31].content_store 	decision_no[31] 	8656
scalar tree_4_3_u00_r17_network.node[31].content_store 	decision_ratio[31] 	0.096922274387063
scalar tree_4_3_u00_r17_network.node[32].core_layer 	interests[32] 	12032
scalar tree_4_3_u00_r17_network.node[32].core_layer 	data[32] 	9486
scalar tree_4_3_u00_r17_network.node[32].content_store 	p_hit[32] 	0.21143617021277
scalar tree_4_3_u00_r17_network.node[32].content_store 	hits[32] 	2544
scalar tree_4_3_u00_r17_network.node[32].content_store 	misses[32] 	9488
scalar tree_4_3_u00_r17_network.node[32].content_store 	decision_yes[32] 	910
scalar tree_4_3_u00_r17_network.node[32].content_store 	decision_no[32] 	8576
scalar tree_4_3_u00_r17_network.node[32].content_store 	decision_ratio[32] 	0.095930845456462
scalar tree_4_3_u00_r17_network.node[33].core_layer 	interests[33] 	11848
scalar tree_4_3_u00_r17_network.node[33].core_layer 	data[33] 	9430
scalar tree_4_3_u00_r17_network.node[33].content_store 	p_hit[33] 	0.20408507765024
scalar tree_4_3_u00_r17_network.node[33].content_store 	hits[33] 	2418
scalar tree_4_3_u00_r17_network.node[33].content_store 	misses[33] 	9430
scalar tree_4_3_u00_r17_network.node[33].content_store 	decision_yes[33] 	933
scalar tree_4_3_u00_r17_network.node[33].content_store 	decision_no[33] 	8497
scalar tree_4_3_u00_r17_network.node[33].content_store 	decision_ratio[33] 	0.098939554612937
scalar tree_4_3_u00_r17_network.node[34].core_layer 	interests[34] 	12079
scalar tree_4_3_u00_r17_network.node[34].core_layer 	data[34] 	9521
scalar tree_4_3_u00_r17_network.node[34].content_store 	p_hit[34] 	0.21168970941303
scalar tree_4_3_u00_r17_network.node[34].content_store 	hits[34] 	2557
scalar tree_4_3_u00_r17_network.node[34].content_store 	misses[34] 	9522
scalar tree_4_3_u00_r17_network.node[34].content_store 	decision_yes[34] 	947
scalar tree_4_3_u00_r17_network.node[34].content_store 	decision_no[34] 	8574
scalar tree_4_3_u00_r17_network.node[34].content_store 	decision_ratio[34] 	0.099464341980884
scalar tree_4_3_u00_r17_network.node[35].core_layer 	interests[35] 	11845
scalar tree_4_3_u00_r17_network.node[35].core_layer 	data[35] 	9501
scalar tree_4_3_u00_r17_network.node[35].content_store 	p_hit[35] 	0.19788940481216
scalar tree_4_3_u00_r17_network.node[35].content_store 	hits[35] 	2344
scalar tree_4_3_u00_r17_network.node[35].content_store 	misses[35] 	9501
scalar tree_4_3_u00_r17_network.node[35].content_store 	decision_yes[35] 	933
scalar tree_4_3_u00_r17_network.node[35].content_store 	decision_no[35] 	8568
scalar tree_4_3_u00_r17_network.node[35].content_store 	decision_ratio[35] 	0.098200189453742
scalar tree_4_3_u00_r17_network.node[36].core_layer 	interests[36] 	12104
scalar tree_4_3_u00_r17_network.node[36].core_layer 	data[36] 	9682
scalar tree_4_3_u00_r17_network.node[36].content_store 	p_hit[36] 	0.20001652346332
scalar tree_4_3_u00_r17_network.node[36].content_store 	hits[36] 	2421
scalar tree_4_3_u00_r17_network.node[36].content_store 	misses[36] 	9683
scalar tree_4_3_u00_r17_network.node[36].content_store 	decision_yes[36] 	954
scalar tree_4_3_u00_r17_network.node[36].content_store 	decision_no[36] 	8728
scalar tree_4_3_u00_r17_network.node[36].content_store 	decision_ratio[36] 	0.098533360875852
scalar tree_4_3_u00_r17_network.node[37].core_layer 	interests[37] 	11982
scalar tree_4_3_u00_r17_network.node[37].core_layer 	data[37] 	9502
scalar tree_4_3_u00_r17_network.node[37].content_store 	p_hit[37] 	0.2068936738441
scalar tree_4_3_u00_r17_network.node[37].content_store 	hits[37] 	2479
scalar tree_4_3_u00_r17_network.node[37].content_store 	misses[37] 	9503
scalar tree_4_3_u00_r17_network.node[37].content_store 	decision_yes[37] 	946
scalar tree_4_3_u00_r17_network.node[37].content_store 	decision_no[37] 	8556
scalar tree_4_3_u00_r17_network.node[37].content_store 	decision_ratio[37] 	0.099557987792044
scalar tree_4_3_u00_r17_network.node[38].core_layer 	interests[38] 	12185
scalar tree_4_3_u00_r17_network.node[38].core_layer 	data[38] 	9620
scalar tree_4_3_u00_r17_network.node[38].content_store 	p_hit[38] 	0.21042265080016
scalar tree_4_3_u00_r17_network.node[38].content_store 	hits[38] 	2564
scalar tree_4_3_u00_r17_network.node[38].content_store 	misses[38] 	9621
scalar tree_4_3_u00_r17_network.node[38].content_store 	decision_yes[38] 	978
scalar tree_4_3_u00_r17_network.node[38].content_store 	decision_no[38] 	8642
scalar tree_4_3_u00_r17_network.node[38].content_store 	decision_ratio[38] 	0.1016632016632
scalar tree_4_3_u00_r17_network.node[39].core_layer 	interests[39] 	11886
scalar tree_4_3_u00_r17_network.node[39].core_layer 	data[39] 	9465
scalar tree_4_3_u00_r17_network.node[39].content_store 	p_hit[39] 	0.20368500757193
scalar tree_4_3_u00_r17_network.node[39].content_store 	hits[39] 	2421
scalar tree_4_3_u00_r17_network.node[39].content_store 	misses[39] 	9465
scalar tree_4_3_u00_r17_network.node[39].content_store 	decision_yes[39] 	916
scalar tree_4_3_u00_r17_network.node[39].content_store 	decision_no[39] 	8549
scalar tree_4_3_u00_r17_network.node[39].content_store 	decision_ratio[39] 	0.096777601690438
scalar tree_4_3_u00_r17_network.client[13] 	hdistance[13] 	3.0360337764401
scalar tree_4_3_u00_r17_network.client[13] 	downloads[13] 	11961
scalar tree_4_3_u00_r17_network.client[13] 	avg_time[13] 	0.004606386508
scalar tree_4_3_u00_r17_network.client[14] 	hdistance[14] 	3.0310194500335
scalar tree_4_3_u00_r17_network.client[14] 	downloads[14] 	11928
scalar tree_4_3_u00_r17_network.client[14] 	avg_time[14] 	0.004601729195
scalar tree_4_3_u00_r17_network.client[15] 	hdistance[15] 	3.0281177638108
scalar tree_4_3_u00_r17_network.client[15] 	downloads[15] 	12092
scalar tree_4_3_u00_r17_network.client[15] 	avg_time[15] 	0.004597912951
scalar tree_4_3_u00_r17_network.client[16] 	hdistance[16] 	3.0595208693505
scalar tree_4_3_u00_r17_network.client[16] 	downloads[16] 	12147
scalar tree_4_3_u00_r17_network.client[16] 	avg_time[16] 	0.004640546153
scalar tree_4_3_u00_r17_network.client[17] 	hdistance[17] 	3.0424886191199
scalar tree_4_3_u00_r17_network.client[17] 	downloads[17] 	11862
scalar tree_4_3_u00_r17_network.client[17] 	avg_time[17] 	0.004614733171
scalar tree_4_3_u00_r17_network.client[18] 	hdistance[18] 	3.0627768954276
scalar tree_4_3_u00_r17_network.client[18] 	downloads[18] 	11963
scalar tree_4_3_u00_r17_network.client[18] 	avg_time[18] 	0.004645639581
scalar tree_4_3_u00_r17_network.client[19] 	hdistance[19] 	3.0533944189921
scalar tree_4_3_u00_r17_network.client[19] 	downloads[19] 	12005
scalar tree_4_3_u00_r17_network.client[19] 	avg_time[19] 	0.004637162909
scalar tree_4_3_u00_r17_network.client[20] 	hdistance[20] 	3.0683917131209
scalar tree_4_3_u00_r17_network.client[20] 	downloads[20] 	12019
scalar tree_4_3_u00_r17_network.client[20] 	avg_time[20] 	0.004653719135
scalar tree_4_3_u00_r17_network.client[21] 	hdistance[21] 	3.0410844280813
scalar tree_4_3_u00_r17_network.client[21] 	downloads[21] 	11951
scalar tree_4_3_u00_r17_network.client[21] 	avg_time[21] 	0.004611948237
scalar tree_4_3_u00_r17_network.client[22] 	hdistance[22] 	3.060066833751
scalar tree_4_3_u00_r17_network.client[22] 	downloads[22] 	11970
scalar tree_4_3_u00_r17_network.client[22] 	avg_time[22] 	0.004644972723
scalar tree_4_3_u00_r17_network.client[23] 	hdistance[23] 	3.0155488317364
scalar tree_4_3_u00_r17_network.client[23] 	downloads[23] 	11898
scalar tree_4_3_u00_r17_network.client[23] 	avg_time[23] 	0.004578749763
scalar tree_4_3_u00_r17_network.client[24] 	hdistance[24] 	3.020392998679
scalar tree_4_3_u00_r17_network.client[24] 	downloads[24] 	12112
scalar tree_4_3_u00_r17_network.client[24] 	avg_time[24] 	0.004582087739
scalar tree_4_3_u00_r17_network.client[25] 	hdistance[25] 	3.0645960680654
scalar tree_4_3_u00_r17_network.client[25] 	downloads[25] 	12106
scalar tree_4_3_u00_r17_network.client[25] 	avg_time[25] 	0.004644635989
scalar tree_4_3_u00_r17_network.client[26] 	hdistance[26] 	3.0599900431464
scalar tree_4_3_u00_r17_network.client[26] 	downloads[26] 	12052
scalar tree_4_3_u00_r17_network.client[26] 	avg_time[26] 	0.004642545945
scalar tree_4_3_u00_r17_network.client[27] 	hdistance[27] 	3.0319623389495
scalar tree_4_3_u00_r17_network.client[27] 	downloads[27] 	12108
scalar tree_4_3_u00_r17_network.client[27] 	avg_time[27] 	0.004598744531
scalar tree_4_3_u00_r17_network.client[28] 	hdistance[28] 	3.028051683101
scalar tree_4_3_u00_r17_network.client[28] 	downloads[28] 	11764
scalar tree_4_3_u00_r17_network.client[28] 	avg_time[28] 	0.004592482599
scalar tree_4_3_u00_r17_network.client[29] 	hdistance[29] 	3.01064373297
scalar tree_4_3_u00_r17_network.client[29] 	downloads[29] 	11744
scalar tree_4_3_u00_r17_network.client[29] 	avg_time[29] 	0.004563185818
scalar tree_4_3_u00_r17_network.client[30] 	hdistance[30] 	3.0692359025692
scalar tree_4_3_u00_r17_network.client[30] 	downloads[30] 	11988
scalar tree_4_3_u00_r17_network.client[30] 	avg_time[30] 	0.004653540777
scalar tree_4_3_u00_r17_network.client[31] 	hdistance[31] 	3.0374093605801
scalar tree_4_3_u00_r17_network.client[31] 	downloads[31] 	12136
scalar tree_4_3_u00_r17_network.client[31] 	avg_time[31] 	0.004606621875
scalar tree_4_3_u00_r17_network.client[32] 	hdistance[32] 	3.0268495428096
scalar tree_4_3_u00_r17_network.client[32] 	downloads[32] 	12030
scalar tree_4_3_u00_r17_network.client[32] 	avg_time[32] 	0.004591034749
scalar tree_4_3_u00_r17_network.client[33] 	hdistance[33] 	3.0537643484132
scalar tree_4_3_u00_r17_network.client[33] 	downloads[33] 	11848
scalar tree_4_3_u00_r17_network.client[33] 	avg_time[33] 	0.004634527217
scalar tree_4_3_u00_r17_network.client[34] 	hdistance[34] 	3.0361814870012
scalar tree_4_3_u00_r17_network.client[34] 	downloads[34] 	12078
scalar tree_4_3_u00_r17_network.client[34] 	avg_time[34] 	0.004604401697
scalar tree_4_3_u00_r17_network.client[35] 	hdistance[35] 	3.0816378218658
scalar tree_4_3_u00_r17_network.client[35] 	downloads[35] 	11845
scalar tree_4_3_u00_r17_network.client[35] 	avg_time[35] 	0.004677075975
scalar tree_4_3_u00_r17_network.client[36] 	hdistance[36] 	3.0660166900768
scalar tree_4_3_u00_r17_network.client[36] 	downloads[36] 	12103
scalar tree_4_3_u00_r17_network.client[36] 	avg_time[36] 	0.004652598022
scalar tree_4_3_u00_r17_network.client[37] 	hdistance[37] 	3.0388949169518
scalar tree_4_3_u00_r17_network.client[37] 	downloads[37] 	11981
scalar tree_4_3_u00_r17_network.client[37] 	avg_time[37] 	0.004610933512
scalar tree_4_3_u00_r17_network.client[38] 	hdistance[38] 	3.0283158240315
scalar tree_4_3_u00_r17_network.client[38] 	downloads[38] 	12184
scalar tree_4_3_u00_r17_network.client[38] 	avg_time[38] 	0.004591920781
scalar tree_4_3_u00_r17_network.client[39] 	hdistance[39] 	3.0405519098099
scalar tree_4_3_u00_r17_network.client[39] 	downloads[39] 	11886
scalar tree_4_3_u00_r17_network.client[39] 	avg_time[39] 	0.004617213721
