version 2
run General-40-20160822-10:31:10-13100
attr D lce
attr F nrr
attr R lru
attr a 0.7
attr configname General
attr datetime 20160822-10:31:10
attr experiment General
attr inifile hw5115/scenario_B/bus.ini
attr iterationvars "$net=bus, $rep=0, $a=0.7, $F=nrr, $D=lce, $R=lru, $window=60, $variance=0.05, $mytime=600"
attr iterationvars2 "$net=bus, $rep=0, $a=0.7, $F=nrr, $D=lce, $R=lru, $window=60, $variance=0.05, $mytime=600, $repetition=0"
attr measurement "$net=bus, $rep=0, $a=0.7, $F=nrr, $D=lce, $R=lru, $window=60, $variance=0.05, $mytime=600"
attr mytime 600
attr net bus
attr network networks.${net=bus}_network
attr processid 13100
attr rep 0
attr repetition 0
attr replication #0
attr resultdir results
attr runnumber 40
attr seedset 0
attr variance 0.05
attr window 60

scalar . 	a 	0.7
scalar . 	mytime 	600
scalar . 	rep 	0
scalar . 	variance 	0.05
scalar . 	window 	60
scalar bus_network.content_distribution 	repo-0 	9
scalar bus_network.content_distribution 	client-0 	5
scalar bus_network.content_distribution 	client-1 	8
scalar bus_network.content_distribution 	client-2 	9
scalar bus_network.content_distribution 	client-3 	0
scalar bus_network.content_distribution 	client-4 	1
scalar bus_network.content_distribution 	client-5 	7
scalar bus_network.content_distribution 	client-6 	6
scalar bus_network.content_distribution 	client-7 	2
scalar bus_network.content_distribution 	client-8 	4
scalar bus_network.content_distribution 	client-9 	3
scalar bus_network.content_distribution 	repo-0_card 	100000
scalar bus_network.content_distribution 	repo-0_price 	0
scalar bus_network.statistics 	stabilization_time 	144.7
scalar bus_network.statistics 	p_hit 	0.015664666960319
scalar bus_network.statistics 	interests 	63839.5
scalar bus_network.statistics 	data 	51851.8
scalar bus_network.statistics 	hdistance 	5.285435858385
scalar bus_network.statistics 	avg_time 	0.008657066262
scalar bus_network.statistics 	downloads 	119876
scalar bus_network.statistics 	total_cost 	0
scalar bus_network.statistics 	total_replicas 	100000
scalar bus_network.statistics 	inner_hit 	0.043428209149454
scalar bus_network.node[0].core_layer 	interests[0] 	12389
scalar bus_network.node[0].core_layer 	data[0] 	11605
scalar bus_network.node[0].core_layer 	repo_int[0] 	114670
scalar bus_network.node[0].content_store 	p_hit[0] 	0.06336266042457
scalar bus_network.node[0].content_store 	hits[0] 	785
scalar bus_network.node[0].content_store 	misses[0] 	11604
scalar bus_network.node[0].content_store 	decision_yes[0] 	11605
scalar bus_network.node[0].content_store 	decision_no[0] 	0
scalar bus_network.node[0].content_store 	decision_ratio[0] 	1
scalar bus_network.node[1].core_layer 	interests[1] 	24457
scalar bus_network.node[1].core_layer 	data[1] 	23661
scalar bus_network.node[1].content_store 	p_hit[1] 	0.032506030993172
scalar bus_network.node[1].content_store 	hits[1] 	795
scalar bus_network.node[1].content_store 	misses[1] 	23662
scalar bus_network.node[1].content_store 	decision_yes[1] 	23661
scalar bus_network.node[1].content_store 	decision_no[1] 	0
scalar bus_network.node[1].content_store 	decision_ratio[1] 	1
scalar bus_network.node[2].core_layer 	interests[2] 	35780
scalar bus_network.node[2].core_layer 	data[2] 	35113
scalar bus_network.node[2].content_store 	p_hit[2] 	0.01866964784796
scalar bus_network.node[2].content_store 	hits[2] 	668
scalar bus_network.node[2].content_store 	misses[2] 	35112
scalar bus_network.node[2].content_store 	decision_yes[2] 	35113
scalar bus_network.node[2].content_store 	decision_no[2] 	0
scalar bus_network.node[2].content_store 	decision_ratio[2] 	1
scalar bus_network.node[3].core_layer 	interests[3] 	47171
scalar bus_network.node[3].core_layer 	data[3] 	46577
scalar bus_network.node[3].content_store 	p_hit[3] 	0.012465285874796
scalar bus_network.node[3].content_store 	hits[3] 	588
scalar bus_network.node[3].content_store 	misses[3] 	46583
scalar bus_network.node[3].content_store 	decision_yes[3] 	46576
scalar bus_network.node[3].content_store 	decision_no[3] 	0
scalar bus_network.node[3].content_store 	decision_ratio[3] 	1
scalar bus_network.node[4].core_layer 	interests[4] 	58351
scalar bus_network.node[4].core_layer 	data[4] 	57842
scalar bus_network.node[4].content_store 	p_hit[4] 	0.0086373841065277
scalar bus_network.node[4].content_store 	hits[4] 	504
scalar bus_network.node[4].content_store 	misses[4] 	57847
scalar bus_network.node[4].content_store 	decision_yes[4] 	57840
scalar bus_network.node[4].content_store 	decision_no[4] 	0
scalar bus_network.node[4].content_store 	decision_ratio[4] 	1
scalar bus_network.node[5].core_layer 	interests[5] 	69393
scalar bus_network.node[5].core_layer 	data[5] 	68949
scalar bus_network.node[5].content_store 	p_hit[5] 	0.0063118758376205
scalar bus_network.node[5].content_store 	hits[5] 	438
scalar bus_network.node[5].content_store 	misses[5] 	68955
scalar bus_network.node[5].content_store 	decision_yes[5] 	68947
scalar bus_network.node[5].content_store 	decision_no[5] 	0
scalar bus_network.node[5].content_store 	decision_ratio[5] 	1
scalar bus_network.node[6].core_layer 	interests[6] 	80632
scalar bus_network.node[6].core_layer 	data[6] 	80262
scalar bus_network.node[6].content_store 	p_hit[6] 	0.0045515428117869
scalar bus_network.node[6].content_store 	hits[6] 	367
scalar bus_network.node[6].content_store 	misses[6] 	80265
scalar bus_network.node[6].content_store 	decision_yes[6] 	80261
scalar bus_network.node[6].content_store 	decision_no[6] 	0
scalar bus_network.node[6].content_store 	decision_ratio[6] 	1
scalar bus_network.node[7].core_layer 	interests[7] 	91854
scalar bus_network.node[7].core_layer 	data[7] 	91485
scalar bus_network.node[7].content_store 	p_hit[7] 	0.0039845842314978
scalar bus_network.node[7].content_store 	hits[7] 	366
scalar bus_network.node[7].content_store 	misses[7] 	91488
scalar bus_network.node[7].content_store 	decision_yes[7] 	91484
scalar bus_network.node[7].content_store 	decision_no[7] 	0
scalar bus_network.node[7].content_store 	decision_ratio[7] 	1
scalar bus_network.node[8].core_layer 	interests[8] 	103347
scalar bus_network.node[8].core_layer 	data[8] 	103024
scalar bus_network.node[8].content_store 	p_hit[8] 	0.0031060408139569
scalar bus_network.node[8].content_store 	hits[8] 	321
scalar bus_network.node[8].content_store 	misses[8] 	103026
scalar bus_network.node[8].content_store 	decision_yes[8] 	103024
scalar bus_network.node[8].content_store 	decision_no[8] 	0
scalar bus_network.node[8].content_store 	decision_ratio[8] 	1
scalar bus_network.node[9].core_layer 	interests[9] 	115021
scalar bus_network.node[9].core_layer 	repo_load[9] 	114670
scalar bus_network.node[9].core_layer 	data[9] 	0
scalar bus_network.node[9].content_store 	p_hit[9] 	0.0030516166613053
scalar bus_network.node[9].content_store 	hits[9] 	351
scalar bus_network.node[9].content_store 	misses[9] 	114670
scalar bus_network.node[9].content_store 	decision_yes[9] 	114670
scalar bus_network.node[9].content_store 	decision_no[9] 	0
scalar bus_network.node[9].content_store 	decision_ratio[9] 	1
scalar bus_network.client[0] 	hdistance[0] 	9.5510272536687
scalar bus_network.client[0] 	downloads[0] 	11925
scalar bus_network.client[0] 	avg_time[0] 	0.017207729676
scalar bus_network.client[1] 	hdistance[1] 	8.5767932141975
scalar bus_network.client[1] 	downloads[1] 	12143
scalar bus_network.client[1] 	avg_time[1] 	0.015260781165
scalar bus_network.client[2] 	hdistance[2] 	7.6348128659934
scalar bus_network.client[2] 	downloads[2] 	11783
scalar bus_network.client[2] 	avg_time[2] 	0.013376512407
scalar bus_network.client[3] 	hdistance[3] 	6.6873445015757
scalar bus_network.client[3] 	downloads[3] 	12058
scalar bus_network.client[3] 	avg_time[3] 	0.011489330042
scalar bus_network.client[4] 	hdistance[4] 	5.772300274337
scalar bus_network.client[4] 	downloads[4] 	12029
scalar bus_network.client[4] 	avg_time[4] 	0.00965091056
scalar bus_network.client[5] 	hdistance[5] 	4.8446195105599
scalar bus_network.client[5] 	downloads[5] 	11932
scalar bus_network.client[5] 	avg_time[5] 	0.007793817227
scalar bus_network.client[6] 	hdistance[6] 	3.8988894414056
scalar bus_network.client[6] 	downloads[6] 	12066
scalar bus_network.client[6] 	avg_time[6] 	0.005879161586
scalar bus_network.client[7] 	hdistance[7] 	2.9372734170812
scalar bus_network.client[7] 	downloads[7] 	11861
scalar bus_network.client[7] 	avg_time[7] 	0.003937106877
scalar bus_network.client[8] 	hdistance[8] 	1.9651501289196
scalar bus_network.client[8] 	downloads[8] 	12023
scalar bus_network.client[8] 	avg_time[8] 	0.001975313082
scalar bus_network.client[9] 	hdistance[9] 	0.98614797611148
scalar bus_network.client[9] 	downloads[9] 	12056
scalar bus_network.client[9] 	avg_time[9] 	0
