version 2
run General-62-20160825-02:07:26-24543
attr D ffc0.01
attr F nrr
attr R lru
attr a 0.9
attr configname General
attr datetime 20160825-02:07:26
attr experiment General
attr inifile hw5115/scenario_C/omnetp.ini
attr iterationvars "$net=dtelecom, $rep=7, $a=0.9, $F=nrr, $D=ffc0.01, $R=lru, $window=60, $variance=0.05, $mytime=600"
attr iterationvars2 "$net=dtelecom, $rep=7, $a=0.9, $F=nrr, $D=ffc0.01, $R=lru, $window=60, $variance=0.05, $mytime=600, $repetition=0"
attr measurement "$net=dtelecom, $rep=7, $a=0.9, $F=nrr, $D=ffc0.01, $R=lru, $window=60, $variance=0.05, $mytime=600"
attr mytime 600
attr net dtelecom
attr network networks.${net=dtelecom}_network
attr processid 24543
attr rep 7
attr repetition 0
attr replication #0
attr resultdir results
attr runnumber 62
attr seedset 7
attr variance 0.05
attr window 60

scalar . 	a 	0.9
scalar . 	mytime 	600
scalar . 	rep 	7
scalar . 	variance 	0.05
scalar . 	window 	60
scalar dtelecom_network.content_distribution 	repo-0 	4
scalar dtelecom_network.content_distribution 	repo-1 	44
scalar dtelecom_network.content_distribution 	repo-2 	64
scalar dtelecom_network.content_distribution 	repo-3 	8
scalar dtelecom_network.content_distribution 	repo-4 	18
scalar dtelecom_network.content_distribution 	repo-5 	14
scalar dtelecom_network.content_distribution 	repo-6 	45
scalar dtelecom_network.content_distribution 	repo-7 	39
scalar dtelecom_network.content_distribution 	repo-8 	34
scalar dtelecom_network.content_distribution 	repo-9 	41
scalar dtelecom_network.content_distribution 	repo-10 	40
scalar dtelecom_network.content_distribution 	repo-11 	5
scalar dtelecom_network.content_distribution 	repo-12 	27
scalar dtelecom_network.content_distribution 	repo-13 	29
scalar dtelecom_network.content_distribution 	repo-14 	38
scalar dtelecom_network.content_distribution 	repo-15 	19
scalar dtelecom_network.content_distribution 	client-0 	46
scalar dtelecom_network.content_distribution 	client-1 	30
scalar dtelecom_network.content_distribution 	client-2 	8
scalar dtelecom_network.content_distribution 	client-3 	49
scalar dtelecom_network.content_distribution 	client-4 	66
scalar dtelecom_network.content_distribution 	client-5 	58
scalar dtelecom_network.content_distribution 	client-6 	32
scalar dtelecom_network.content_distribution 	client-7 	40
scalar dtelecom_network.content_distribution 	client-8 	42
scalar dtelecom_network.content_distribution 	client-9 	45
scalar dtelecom_network.content_distribution 	client-10 	33
scalar dtelecom_network.content_distribution 	client-11 	28
scalar dtelecom_network.content_distribution 	client-12 	3
scalar dtelecom_network.content_distribution 	client-13 	57
scalar dtelecom_network.content_distribution 	client-14 	50
scalar dtelecom_network.content_distribution 	client-15 	17
scalar dtelecom_network.content_distribution 	client-16 	59
scalar dtelecom_network.content_distribution 	client-17 	48
scalar dtelecom_network.content_distribution 	client-18 	23
scalar dtelecom_network.content_distribution 	client-19 	22
scalar dtelecom_network.content_distribution 	client-20 	67
scalar dtelecom_network.content_distribution 	client-21 	62
scalar dtelecom_network.content_distribution 	client-22 	56
scalar dtelecom_network.content_distribution 	client-23 	55
scalar dtelecom_network.content_distribution 	client-24 	53
scalar dtelecom_network.content_distribution 	client-25 	36
scalar dtelecom_network.content_distribution 	client-26 	51
scalar dtelecom_network.content_distribution 	client-27 	37
scalar dtelecom_network.content_distribution 	client-28 	54
scalar dtelecom_network.content_distribution 	client-29 	4
scalar dtelecom_network.content_distribution 	client-30 	31
scalar dtelecom_network.content_distribution 	client-31 	9
scalar dtelecom_network.content_distribution 	repo-0_card 	6346
scalar dtelecom_network.content_distribution 	repo-0_price 	0
scalar dtelecom_network.content_distribution 	repo-1_card 	6181
scalar dtelecom_network.content_distribution 	repo-1_price 	0
scalar dtelecom_network.content_distribution 	repo-2_card 	6224
scalar dtelecom_network.content_distribution 	repo-2_price 	0
scalar dtelecom_network.content_distribution 	repo-3_card 	6310
scalar dtelecom_network.content_distribution 	repo-3_price 	0
scalar dtelecom_network.content_distribution 	repo-4_card 	6130
scalar dtelecom_network.content_distribution 	repo-4_price 	0
scalar dtelecom_network.content_distribution 	repo-5_card 	6321
scalar dtelecom_network.content_distribution 	repo-5_price 	0
scalar dtelecom_network.content_distribution 	repo-6_card 	6231
scalar dtelecom_network.content_distribution 	repo-6_price 	0
scalar dtelecom_network.content_distribution 	repo-7_card 	6325
scalar dtelecom_network.content_distribution 	repo-7_price 	0
scalar dtelecom_network.content_distribution 	repo-8_card 	6290
scalar dtelecom_network.content_distribution 	repo-8_price 	0
scalar dtelecom_network.content_distribution 	repo-9_card 	6222
scalar dtelecom_network.content_distribution 	repo-9_price 	0
scalar dtelecom_network.content_distribution 	repo-10_card 	6218
scalar dtelecom_network.content_distribution 	repo-10_price 	0
scalar dtelecom_network.content_distribution 	repo-11_card 	6095
scalar dtelecom_network.content_distribution 	repo-11_price 	0
scalar dtelecom_network.content_distribution 	repo-12_card 	6254
scalar dtelecom_network.content_distribution 	repo-12_price 	0
scalar dtelecom_network.content_distribution 	repo-13_card 	6242
scalar dtelecom_network.content_distribution 	repo-13_price 	0
scalar dtelecom_network.content_distribution 	repo-14_card 	6305
scalar dtelecom_network.content_distribution 	repo-14_price 	0
scalar dtelecom_network.content_distribution 	repo-15_card 	6306
scalar dtelecom_network.content_distribution 	repo-15_price 	0
scalar dtelecom_network.statistics 	stabilization_time 	10123.6
scalar dtelecom_network.statistics 	p_hit 	0.26001200405506
scalar dtelecom_network.statistics 	interests 	13003.970588235
scalar dtelecom_network.statistics 	data 	7346.7794117647
scalar dtelecom_network.statistics 	hdistance 	1.7964125279758
scalar dtelecom_network.statistics 	avg_time 	0.025535319114
scalar dtelecom_network.statistics 	downloads 	384639
scalar dtelecom_network.statistics 	total_cost 	0
scalar dtelecom_network.statistics 	total_replicas 	100000
scalar dtelecom_network.statistics 	inner_hit 	0.5031081091621
scalar dtelecom_network.node[0].core_layer 	interests[0] 	0
scalar dtelecom_network.node[0].core_layer 	data[0] 	0
scalar dtelecom_network.node[0].core_layer 	repo_int[0] 	191124
scalar dtelecom_network.node[0].content_store 	p_hit[0] 	-nan
scalar dtelecom_network.node[0].content_store 	hits[0] 	0
scalar dtelecom_network.node[0].content_store 	misses[0] 	0
scalar dtelecom_network.node[0].content_store 	decision_yes[0] 	0
scalar dtelecom_network.node[0].content_store 	decision_no[0] 	0
scalar dtelecom_network.node[0].content_store 	decision_ratio[0] 	0
scalar dtelecom_network.node[1].core_layer 	interests[1] 	175090
scalar dtelecom_network.node[1].core_layer 	data[1] 	161167
scalar dtelecom_network.node[1].content_store 	p_hit[1] 	0.079461990976069
scalar dtelecom_network.node[1].content_store 	hits[1] 	13913
scalar dtelecom_network.node[1].content_store 	misses[1] 	161177
scalar dtelecom_network.node[1].content_store 	decision_yes[1] 	18
scalar dtelecom_network.node[1].content_store 	decision_no[1] 	161149
scalar dtelecom_network.node[1].content_store 	decision_ratio[1] 	0.00011168539465275
scalar dtelecom_network.node[2].core_layer 	interests[2] 	2984
scalar dtelecom_network.node[2].core_layer 	data[2] 	2049
scalar dtelecom_network.node[2].content_store 	p_hit[2] 	0.31333780160858
scalar dtelecom_network.node[2].content_store 	hits[2] 	935
scalar dtelecom_network.node[2].content_store 	misses[2] 	2049
scalar dtelecom_network.node[2].content_store 	decision_yes[2] 	0
scalar dtelecom_network.node[2].content_store 	decision_no[2] 	2049
scalar dtelecom_network.node[2].content_store 	decision_ratio[2] 	0
scalar dtelecom_network.node[3].core_layer 	interests[3] 	15724
scalar dtelecom_network.node[3].core_layer 	data[3] 	9627
scalar dtelecom_network.node[3].content_store 	p_hit[3] 	0.38775120834393
scalar dtelecom_network.node[3].content_store 	hits[3] 	6097
scalar dtelecom_network.node[3].content_store 	misses[3] 	9627
scalar dtelecom_network.node[3].content_store 	decision_yes[3] 	4
scalar dtelecom_network.node[3].content_store 	decision_no[3] 	9623
scalar dtelecom_network.node[3].content_store 	decision_ratio[3] 	0.00041549807832139
scalar dtelecom_network.node[4].core_layer 	interests[4] 	67631
scalar dtelecom_network.node[4].core_layer 	repo_load[4] 	14721
scalar dtelecom_network.node[4].core_layer 	data[4] 	38073
scalar dtelecom_network.node[4].content_store 	p_hit[4] 	0.21899720542355
scalar dtelecom_network.node[4].content_store 	hits[4] 	14811
scalar dtelecom_network.node[4].content_store 	misses[4] 	52820
scalar dtelecom_network.node[4].content_store 	decision_yes[4] 	10
scalar dtelecom_network.node[4].content_store 	decision_no[4] 	52784
scalar dtelecom_network.node[4].content_store 	decision_ratio[4] 	0.00018941546387847
scalar dtelecom_network.node[5].core_layer 	interests[5] 	16243
scalar dtelecom_network.node[5].core_layer 	repo_load[5] 	11481
scalar dtelecom_network.node[5].core_layer 	data[5] 	0
scalar dtelecom_network.node[5].content_store 	p_hit[5] 	0.29317244351413
scalar dtelecom_network.node[5].content_store 	hits[5] 	4762
scalar dtelecom_network.node[5].content_store 	misses[5] 	11481
scalar dtelecom_network.node[5].content_store 	decision_yes[5] 	5
scalar dtelecom_network.node[5].content_store 	decision_no[5] 	11476
scalar dtelecom_network.node[5].content_store 	decision_ratio[5] 	0.00043550213396046
scalar dtelecom_network.node[6].core_layer 	interests[6] 	0
scalar dtelecom_network.node[6].core_layer 	data[6] 	0
scalar dtelecom_network.node[6].content_store 	p_hit[6] 	-nan
scalar dtelecom_network.node[6].content_store 	hits[6] 	0
scalar dtelecom_network.node[6].content_store 	misses[6] 	0
scalar dtelecom_network.node[6].content_store 	decision_yes[6] 	0
scalar dtelecom_network.node[6].content_store 	decision_no[6] 	0
scalar dtelecom_network.node[6].content_store 	decision_ratio[6] 	0
scalar dtelecom_network.node[7].core_layer 	interests[7] 	0
scalar dtelecom_network.node[7].core_layer 	data[7] 	0
scalar dtelecom_network.node[7].content_store 	p_hit[7] 	-nan
scalar dtelecom_network.node[7].content_store 	hits[7] 	0
scalar dtelecom_network.node[7].content_store 	misses[7] 	0
scalar dtelecom_network.node[7].content_store 	decision_yes[7] 	0
scalar dtelecom_network.node[7].content_store 	decision_no[7] 	0
scalar dtelecom_network.node[7].content_store 	decision_ratio[7] 	0
scalar dtelecom_network.node[8].core_layer 	interests[8] 	27026
scalar dtelecom_network.node[8].core_layer 	repo_load[8] 	12919
scalar dtelecom_network.node[8].core_layer 	data[8] 	8802
scalar dtelecom_network.node[8].content_store 	p_hit[8] 	0.19629245911345
scalar dtelecom_network.node[8].content_store 	hits[8] 	5305
scalar dtelecom_network.node[8].content_store 	misses[8] 	21721
scalar dtelecom_network.node[8].content_store 	decision_yes[8] 	7
scalar dtelecom_network.node[8].content_store 	decision_no[8] 	21714
scalar dtelecom_network.node[8].content_store 	decision_ratio[8] 	0.00032226877215598
scalar dtelecom_network.node[9].core_layer 	interests[9] 	13154
scalar dtelecom_network.node[9].core_layer 	data[9] 	9317
scalar dtelecom_network.node[9].content_store 	p_hit[9] 	0.29169834270944
scalar dtelecom_network.node[9].content_store 	hits[9] 	3837
scalar dtelecom_network.node[9].content_store 	misses[9] 	9317
scalar dtelecom_network.node[9].content_store 	decision_yes[9] 	3
scalar dtelecom_network.node[9].content_store 	decision_no[9] 	9314
scalar dtelecom_network.node[9].content_store 	decision_ratio[9] 	0.00032199205752925
scalar dtelecom_network.node[10].core_layer 	interests[10] 	0
scalar dtelecom_network.node[10].core_layer 	data[10] 	0
scalar dtelecom_network.node[10].content_store 	p_hit[10] 	-nan
scalar dtelecom_network.node[10].content_store 	hits[10] 	0
scalar dtelecom_network.node[10].content_store 	misses[10] 	0
scalar dtelecom_network.node[10].content_store 	decision_yes[10] 	0
scalar dtelecom_network.node[10].content_store 	decision_no[10] 	0
scalar dtelecom_network.node[10].content_store 	decision_ratio[10] 	0
scalar dtelecom_network.node[11].core_layer 	interests[11] 	0
scalar dtelecom_network.node[11].core_layer 	data[11] 	0
scalar dtelecom_network.node[11].content_store 	p_hit[11] 	-nan
scalar dtelecom_network.node[11].content_store 	hits[11] 	0
scalar dtelecom_network.node[11].content_store 	misses[11] 	0
scalar dtelecom_network.node[11].content_store 	decision_yes[11] 	0
scalar dtelecom_network.node[11].content_store 	decision_no[11] 	0
scalar dtelecom_network.node[11].content_store 	decision_ratio[11] 	0
scalar dtelecom_network.node[12].core_layer 	interests[12] 	0
scalar dtelecom_network.node[12].core_layer 	data[12] 	0
scalar dtelecom_network.node[12].content_store 	p_hit[12] 	-nan
scalar dtelecom_network.node[12].content_store 	hits[12] 	0
scalar dtelecom_network.node[12].content_store 	misses[12] 	0
scalar dtelecom_network.node[12].content_store 	decision_yes[12] 	0
scalar dtelecom_network.node[12].content_store 	decision_no[12] 	0
scalar dtelecom_network.node[12].content_store 	decision_ratio[12] 	0
scalar dtelecom_network.node[13].core_layer 	interests[13] 	0
scalar dtelecom_network.node[13].core_layer 	data[13] 	0
scalar dtelecom_network.node[13].content_store 	p_hit[13] 	-nan
scalar dtelecom_network.node[13].content_store 	hits[13] 	0
scalar dtelecom_network.node[13].content_store 	misses[13] 	0
scalar dtelecom_network.node[13].content_store 	decision_yes[13] 	0
scalar dtelecom_network.node[13].content_store 	decision_no[13] 	0
scalar dtelecom_network.node[13].content_store 	decision_ratio[13] 	0
scalar dtelecom_network.node[14].core_layer 	interests[14] 	15591
scalar dtelecom_network.node[14].core_layer 	repo_load[14] 	11758
scalar dtelecom_network.node[14].core_layer 	data[14] 	0
scalar dtelecom_network.node[14].content_store 	p_hit[14] 	0.24584696299147
scalar dtelecom_network.node[14].content_store 	hits[14] 	3833
scalar dtelecom_network.node[14].content_store 	misses[14] 	11758
scalar dtelecom_network.node[14].content_store 	decision_yes[14] 	3
scalar dtelecom_network.node[14].content_store 	decision_no[14] 	11755
scalar dtelecom_network.node[14].content_store 	decision_ratio[14] 	0.00025514543289675
scalar dtelecom_network.node[15].core_layer 	interests[15] 	0
scalar dtelecom_network.node[15].core_layer 	data[15] 	0
scalar dtelecom_network.node[15].content_store 	p_hit[15] 	-nan
scalar dtelecom_network.node[15].content_store 	hits[15] 	0
scalar dtelecom_network.node[15].content_store 	misses[15] 	0
scalar dtelecom_network.node[15].content_store 	decision_yes[15] 	0
scalar dtelecom_network.node[15].content_store 	decision_no[15] 	0
scalar dtelecom_network.node[15].content_store 	decision_ratio[15] 	0
scalar dtelecom_network.node[16].core_layer 	interests[16] 	0
scalar dtelecom_network.node[16].core_layer 	data[16] 	0
scalar dtelecom_network.node[16].content_store 	p_hit[16] 	-nan
scalar dtelecom_network.node[16].content_store 	hits[16] 	0
scalar dtelecom_network.node[16].content_store 	misses[16] 	0
scalar dtelecom_network.node[16].content_store 	decision_yes[16] 	0
scalar dtelecom_network.node[16].content_store 	decision_no[16] 	0
scalar dtelecom_network.node[16].content_store 	decision_ratio[16] 	0
scalar dtelecom_network.node[17].core_layer 	interests[17] 	14389
scalar dtelecom_network.node[17].core_layer 	data[17] 	10662
scalar dtelecom_network.node[17].content_store 	p_hit[17] 	0.25915629995135
scalar dtelecom_network.node[17].content_store 	hits[17] 	3729
scalar dtelecom_network.node[17].content_store 	misses[17] 	10660
scalar dtelecom_network.node[17].content_store 	decision_yes[17] 	0
scalar dtelecom_network.node[17].content_store 	decision_no[17] 	10662
scalar dtelecom_network.node[17].content_store 	decision_ratio[17] 	0
scalar dtelecom_network.node[18].core_layer 	interests[18] 	14972
scalar dtelecom_network.node[18].core_layer 	repo_load[18] 	11780
scalar dtelecom_network.node[18].core_layer 	data[18] 	0
scalar dtelecom_network.node[18].content_store 	p_hit[18] 	0.21319796954315
scalar dtelecom_network.node[18].content_store 	hits[18] 	3192
scalar dtelecom_network.node[18].content_store 	misses[18] 	11780
scalar dtelecom_network.node[18].content_store 	decision_yes[18] 	6
scalar dtelecom_network.node[18].content_store 	decision_no[18] 	11774
scalar dtelecom_network.node[18].content_store 	decision_ratio[18] 	0.00050933786078098
scalar dtelecom_network.node[19].core_layer 	interests[19] 	15430
scalar dtelecom_network.node[19].core_layer 	repo_load[19] 	11935
scalar dtelecom_network.node[19].core_layer 	data[19] 	0
scalar dtelecom_network.node[19].content_store 	p_hit[19] 	0.22650680492547
scalar dtelecom_network.node[19].content_store 	hits[19] 	3495
scalar dtelecom_network.node[19].content_store 	misses[19] 	11935
scalar dtelecom_network.node[19].content_store 	decision_yes[19] 	4
scalar dtelecom_network.node[19].content_store 	decision_no[19] 	11931
scalar dtelecom_network.node[19].content_store 	decision_ratio[19] 	0.0003351487222455
scalar dtelecom_network.node[20].core_layer 	interests[20] 	0
scalar dtelecom_network.node[20].core_layer 	data[20] 	0
scalar dtelecom_network.node[20].content_store 	p_hit[20] 	-nan
scalar dtelecom_network.node[20].content_store 	hits[20] 	0
scalar dtelecom_network.node[20].content_store 	misses[20] 	0
scalar dtelecom_network.node[20].content_store 	decision_yes[20] 	0
scalar dtelecom_network.node[20].content_store 	decision_no[20] 	0
scalar dtelecom_network.node[20].content_store 	decision_ratio[20] 	0
scalar dtelecom_network.node[21].core_layer 	interests[21] 	0
scalar dtelecom_network.node[21].core_layer 	data[21] 	0
scalar dtelecom_network.node[21].content_store 	p_hit[21] 	-nan
scalar dtelecom_network.node[21].content_store 	hits[21] 	0
scalar dtelecom_network.node[21].content_store 	misses[21] 	0
scalar dtelecom_network.node[21].content_store 	decision_yes[21] 	0
scalar dtelecom_network.node[21].content_store 	decision_no[21] 	0
scalar dtelecom_network.node[21].content_store 	decision_ratio[21] 	0
scalar dtelecom_network.node[22].core_layer 	interests[22] 	12376
scalar dtelecom_network.node[22].core_layer 	data[22] 	9123
scalar dtelecom_network.node[22].content_store 	p_hit[22] 	0.26284744667098
scalar dtelecom_network.node[22].content_store 	hits[22] 	3253
scalar dtelecom_network.node[22].content_store 	misses[22] 	9123
scalar dtelecom_network.node[22].content_store 	decision_yes[22] 	2
scalar dtelecom_network.node[22].content_store 	decision_no[22] 	9121
scalar dtelecom_network.node[22].content_store 	decision_ratio[22] 	0.00021922613175491
scalar dtelecom_network.node[23].core_layer 	interests[23] 	25721
scalar dtelecom_network.node[23].core_layer 	data[23] 	19077
scalar dtelecom_network.node[23].content_store 	p_hit[23] 	0.25823257260604
scalar dtelecom_network.node[23].content_store 	hits[23] 	6642
scalar dtelecom_network.node[23].content_store 	misses[23] 	19079
scalar dtelecom_network.node[23].content_store 	decision_yes[23] 	4
scalar dtelecom_network.node[23].content_store 	decision_no[23] 	19073
scalar dtelecom_network.node[23].content_store 	decision_ratio[23] 	0.00020967657388478
scalar dtelecom_network.node[24].core_layer 	interests[24] 	0
scalar dtelecom_network.node[24].core_layer 	data[24] 	0
scalar dtelecom_network.node[24].content_store 	p_hit[24] 	-nan
scalar dtelecom_network.node[24].content_store 	hits[24] 	0
scalar dtelecom_network.node[24].content_store 	misses[24] 	0
scalar dtelecom_network.node[24].content_store 	decision_yes[24] 	0
scalar dtelecom_network.node[24].content_store 	decision_no[24] 	0
scalar dtelecom_network.node[24].content_store 	decision_ratio[24] 	0
scalar dtelecom_network.node[25].core_layer 	interests[25] 	0
scalar dtelecom_network.node[25].core_layer 	data[25] 	0
scalar dtelecom_network.node[25].content_store 	p_hit[25] 	-nan
scalar dtelecom_network.node[25].content_store 	hits[25] 	0
scalar dtelecom_network.node[25].content_store 	misses[25] 	0
scalar dtelecom_network.node[25].content_store 	decision_yes[25] 	0
scalar dtelecom_network.node[25].content_store 	decision_no[25] 	0
scalar dtelecom_network.node[25].content_store 	decision_ratio[25] 	0
scalar dtelecom_network.node[26].core_layer 	interests[26] 	1319
scalar dtelecom_network.node[26].core_layer 	data[26] 	969
scalar dtelecom_network.node[26].content_store 	p_hit[26] 	0.26535253980288
scalar dtelecom_network.node[26].content_store 	hits[26] 	350
scalar dtelecom_network.node[26].content_store 	misses[26] 	969
scalar dtelecom_network.node[26].content_store 	decision_yes[26] 	0
scalar dtelecom_network.node[26].content_store 	decision_no[26] 	969
scalar dtelecom_network.node[26].content_store 	decision_ratio[26] 	0
scalar dtelecom_network.node[27].core_layer 	interests[27] 	15326
scalar dtelecom_network.node[27].core_layer 	repo_load[27] 	12012
scalar dtelecom_network.node[27].core_layer 	data[27] 	0
scalar dtelecom_network.node[27].content_store 	p_hit[27] 	0.2162338509722
scalar dtelecom_network.node[27].content_store 	hits[27] 	3314
scalar dtelecom_network.node[27].content_store 	misses[27] 	12012
scalar dtelecom_network.node[27].content_store 	decision_yes[27] 	7
scalar dtelecom_network.node[27].content_store 	decision_no[27] 	12005
scalar dtelecom_network.node[27].content_store 	decision_ratio[27] 	0.00058275058275058
scalar dtelecom_network.node[28].core_layer 	interests[28] 	13088
scalar dtelecom_network.node[28].core_layer 	data[28] 	9445
scalar dtelecom_network.node[28].content_store 	p_hit[28] 	0.2781173594132
scalar dtelecom_network.node[28].content_store 	hits[28] 	3640
scalar dtelecom_network.node[28].content_store 	misses[28] 	9448
scalar dtelecom_network.node[28].content_store 	decision_yes[28] 	1
scalar dtelecom_network.node[28].content_store 	decision_no[28] 	9444
scalar dtelecom_network.node[28].content_store 	decision_ratio[28] 	0.00010587612493383
scalar dtelecom_network.node[29].core_layer 	interests[29] 	15183
scalar dtelecom_network.node[29].core_layer 	repo_load[29] 	11563
scalar dtelecom_network.node[29].core_layer 	data[29] 	0
scalar dtelecom_network.node[29].content_store 	p_hit[29] 	0.23842455377725
scalar dtelecom_network.node[29].content_store 	hits[29] 	3620
scalar dtelecom_network.node[29].content_store 	misses[29] 	11563
scalar dtelecom_network.node[29].content_store 	decision_yes[29] 	5
scalar dtelecom_network.node[29].content_store 	decision_no[29] 	11558
scalar dtelecom_network.node[29].content_store 	decision_ratio[29] 	0.00043241373346017
scalar dtelecom_network.node[30].core_layer 	interests[30] 	12212
scalar dtelecom_network.node[30].core_layer 	data[30] 	9182
scalar dtelecom_network.node[30].content_store 	p_hit[30] 	0.24819849328529
scalar dtelecom_network.node[30].content_store 	hits[30] 	3031
scalar dtelecom_network.node[30].content_store 	misses[30] 	9181
scalar dtelecom_network.node[30].content_store 	decision_yes[30] 	4
scalar dtelecom_network.node[30].content_store 	decision_no[30] 	9178
scalar dtelecom_network.node[30].content_store 	decision_ratio[30] 	0.00043563493792202
scalar dtelecom_network.node[31].core_layer 	interests[31] 	13010
scalar dtelecom_network.node[31].core_layer 	data[31] 	8967
scalar dtelecom_network.node[31].content_store 	p_hit[31] 	0.31076095311299
scalar dtelecom_network.node[31].content_store 	hits[31] 	4043
scalar dtelecom_network.node[31].content_store 	misses[31] 	8967
scalar dtelecom_network.node[31].content_store 	decision_yes[31] 	4
scalar dtelecom_network.node[31].content_store 	decision_no[31] 	8963
scalar dtelecom_network.node[31].content_store 	decision_ratio[31] 	0.00044608007137281
scalar dtelecom_network.node[32].core_layer 	interests[32] 	12440
scalar dtelecom_network.node[32].core_layer 	data[32] 	9058
scalar dtelecom_network.node[32].content_store 	p_hit[32] 	0.2717845659164
scalar dtelecom_network.node[32].content_store 	hits[32] 	3381
scalar dtelecom_network.node[32].content_store 	misses[32] 	9059
scalar dtelecom_network.node[32].content_store 	decision_yes[32] 	2
scalar dtelecom_network.node[32].content_store 	decision_no[32] 	9056
scalar dtelecom_network.node[32].content_store 	decision_ratio[32] 	0.00022079929344226
scalar dtelecom_network.node[33].core_layer 	interests[33] 	13506
scalar dtelecom_network.node[33].core_layer 	data[33] 	9212
scalar dtelecom_network.node[33].content_store 	p_hit[33] 	0.31793277062046
scalar dtelecom_network.node[33].content_store 	hits[33] 	4294
scalar dtelecom_network.node[33].content_store 	misses[33] 	9212
scalar dtelecom_network.node[33].content_store 	decision_yes[33] 	1
scalar dtelecom_network.node[33].content_store 	decision_no[33] 	9211
scalar dtelecom_network.node[33].content_store 	decision_ratio[33] 	0.00010855405992184
scalar dtelecom_network.node[34].core_layer 	interests[34] 	15339
scalar dtelecom_network.node[34].core_layer 	repo_load[34] 	11766
scalar dtelecom_network.node[34].core_layer 	data[34] 	0
scalar dtelecom_network.node[34].content_store 	p_hit[34] 	0.23293565421475
scalar dtelecom_network.node[34].content_store 	hits[34] 	3573
scalar dtelecom_network.node[34].content_store 	misses[34] 	11766
scalar dtelecom_network.node[34].content_store 	decision_yes[34] 	6
scalar dtelecom_network.node[34].content_store 	decision_no[34] 	11760
scalar dtelecom_network.node[34].content_store 	decision_ratio[34] 	0.00050994390617032
scalar dtelecom_network.node[35].core_layer 	interests[35] 	0
scalar dtelecom_network.node[35].core_layer 	data[35] 	0
scalar dtelecom_network.node[35].content_store 	p_hit[35] 	-nan
scalar dtelecom_network.node[35].content_store 	hits[35] 	0
scalar dtelecom_network.node[35].content_store 	misses[35] 	0
scalar dtelecom_network.node[35].content_store 	decision_yes[35] 	0
scalar dtelecom_network.node[35].content_store 	decision_no[35] 	0
scalar dtelecom_network.node[35].content_store 	decision_ratio[35] 	0
scalar dtelecom_network.node[36].core_layer 	interests[36] 	12517
scalar dtelecom_network.node[36].core_layer 	data[36] 	9209
scalar dtelecom_network.node[36].content_store 	p_hit[36] 	0.26428057841336
scalar dtelecom_network.node[36].content_store 	hits[36] 	3308
scalar dtelecom_network.node[36].content_store 	misses[36] 	9209
scalar dtelecom_network.node[36].content_store 	decision_yes[36] 	3
scalar dtelecom_network.node[36].content_store 	decision_no[36] 	9206
scalar dtelecom_network.node[36].content_store 	decision_ratio[36] 	0.00032576827017049
scalar dtelecom_network.node[37].core_layer 	interests[37] 	12779
scalar dtelecom_network.node[37].core_layer 	data[37] 	9095
scalar dtelecom_network.node[37].content_store 	p_hit[37] 	0.28805070819313
scalar dtelecom_network.node[37].content_store 	hits[37] 	3681
scalar dtelecom_network.node[37].content_store 	misses[37] 	9098
scalar dtelecom_network.node[37].content_store 	decision_yes[37] 	3
scalar dtelecom_network.node[37].content_store 	decision_no[37] 	9092
scalar dtelecom_network.node[37].content_store 	decision_ratio[37] 	0.00032985156679494
scalar dtelecom_network.node[38].core_layer 	interests[38] 	15307
scalar dtelecom_network.node[38].core_layer 	repo_load[38] 	11621
scalar dtelecom_network.node[38].core_layer 	data[38] 	0
scalar dtelecom_network.node[38].content_store 	p_hit[38] 	0.24080486052133
scalar dtelecom_network.node[38].content_store 	hits[38] 	3686
scalar dtelecom_network.node[38].content_store 	misses[38] 	11621
scalar dtelecom_network.node[38].content_store 	decision_yes[38] 	7
scalar dtelecom_network.node[38].content_store 	decision_no[38] 	11614
scalar dtelecom_network.node[38].content_store 	decision_ratio[38] 	0.00060235780053352
scalar dtelecom_network.node[39].core_layer 	interests[39] 	14466
scalar dtelecom_network.node[39].core_layer 	repo_load[39] 	11357
scalar dtelecom_network.node[39].core_layer 	data[39] 	0
scalar dtelecom_network.node[39].content_store 	p_hit[39] 	0.21491773814461
scalar dtelecom_network.node[39].content_store 	hits[39] 	3109
scalar dtelecom_network.node[39].content_store 	misses[39] 	11357
scalar dtelecom_network.node[39].content_store 	decision_yes[39] 	6
scalar dtelecom_network.node[39].content_store 	decision_no[39] 	11351
scalar dtelecom_network.node[39].content_store 	decision_ratio[39] 	0.00052830853218279
scalar dtelecom_network.node[40].core_layer 	interests[40] 	27512
scalar dtelecom_network.node[40].core_layer 	repo_load[40] 	12000
scalar dtelecom_network.node[40].core_layer 	data[40] 	9549
scalar dtelecom_network.node[40].content_store 	p_hit[40] 	0.21674178540273
scalar dtelecom_network.node[40].content_store 	hits[40] 	5963
scalar dtelecom_network.node[40].content_store 	misses[40] 	21549
scalar dtelecom_network.node[40].content_store 	decision_yes[40] 	5
scalar dtelecom_network.node[40].content_store 	decision_no[40] 	21544
scalar dtelecom_network.node[40].content_store 	decision_ratio[40] 	0.00023202932850712
scalar dtelecom_network.node[41].core_layer 	interests[41] 	15311
scalar dtelecom_network.node[41].core_layer 	repo_load[41] 	11394
scalar dtelecom_network.node[41].core_layer 	data[41] 	0
scalar dtelecom_network.node[41].content_store 	p_hit[41] 	0.25582914244661
scalar dtelecom_network.node[41].content_store 	hits[41] 	3917
scalar dtelecom_network.node[41].content_store 	misses[41] 	11394
scalar dtelecom_network.node[41].content_store 	decision_yes[41] 	7
scalar dtelecom_network.node[41].content_store 	decision_no[41] 	11387
scalar dtelecom_network.node[41].content_store 	decision_ratio[41] 	0.00061435843426365
scalar dtelecom_network.node[42].core_layer 	interests[42] 	12876
scalar dtelecom_network.node[42].core_layer 	data[42] 	9193
scalar dtelecom_network.node[42].content_store 	p_hit[42] 	0.2856477166822
scalar dtelecom_network.node[42].content_store 	hits[42] 	3678
scalar dtelecom_network.node[42].content_store 	misses[42] 	9198
scalar dtelecom_network.node[42].content_store 	decision_yes[42] 	0
scalar dtelecom_network.node[42].content_store 	decision_no[42] 	9193
scalar dtelecom_network.node[42].content_store 	decision_ratio[42] 	0
scalar dtelecom_network.node[43].core_layer 	interests[43] 	0
scalar dtelecom_network.node[43].core_layer 	data[43] 	0
scalar dtelecom_network.node[43].content_store 	p_hit[43] 	-nan
scalar dtelecom_network.node[43].content_store 	hits[43] 	0
scalar dtelecom_network.node[43].content_store 	misses[43] 	0
scalar dtelecom_network.node[43].content_store 	decision_yes[43] 	0
scalar dtelecom_network.node[43].content_store 	decision_no[43] 	0
scalar dtelecom_network.node[43].content_store 	decision_ratio[43] 	0
scalar dtelecom_network.node[44].core_layer 	interests[44] 	14666
scalar dtelecom_network.node[44].core_layer 	repo_load[44] 	11005
scalar dtelecom_network.node[44].core_layer 	data[44] 	0
scalar dtelecom_network.node[44].content_store 	p_hit[44] 	0.24962498295377
scalar dtelecom_network.node[44].content_store 	hits[44] 	3661
scalar dtelecom_network.node[44].content_store 	misses[44] 	11005
scalar dtelecom_network.node[44].content_store 	decision_yes[44] 	5
scalar dtelecom_network.node[44].content_store 	decision_no[44] 	11000
scalar dtelecom_network.node[44].content_store 	decision_ratio[44] 	0.00045433893684689
scalar dtelecom_network.node[45].core_layer 	interests[45] 	26820
scalar dtelecom_network.node[45].core_layer 	repo_load[45] 	12192
scalar dtelecom_network.node[45].core_layer 	data[45] 	9038
scalar dtelecom_network.node[45].content_store 	p_hit[45] 	0.20838926174497
scalar dtelecom_network.node[45].content_store 	hits[45] 	5589
scalar dtelecom_network.node[45].content_store 	misses[45] 	21231
scalar dtelecom_network.node[45].content_store 	decision_yes[45] 	4
scalar dtelecom_network.node[45].content_store 	decision_no[45] 	21226
scalar dtelecom_network.node[45].content_store 	decision_ratio[45] 	0.00018841262364578
scalar dtelecom_network.node[46].core_layer 	interests[46] 	12839
scalar dtelecom_network.node[46].core_layer 	data[46] 	9450
scalar dtelecom_network.node[46].content_store 	p_hit[46] 	0.26380559233585
scalar dtelecom_network.node[46].content_store 	hits[46] 	3387
scalar dtelecom_network.node[46].content_store 	misses[46] 	9452
scalar dtelecom_network.node[46].content_store 	decision_yes[46] 	3
scalar dtelecom_network.node[46].content_store 	decision_no[46] 	9447
scalar dtelecom_network.node[46].content_store 	decision_ratio[46] 	0.00031746031746032
scalar dtelecom_network.node[47].core_layer 	interests[47] 	0
scalar dtelecom_network.node[47].core_layer 	data[47] 	0
scalar dtelecom_network.node[47].content_store 	p_hit[47] 	-nan
scalar dtelecom_network.node[47].content_store 	hits[47] 	0
scalar dtelecom_network.node[47].content_store 	misses[47] 	0
scalar dtelecom_network.node[47].content_store 	decision_yes[47] 	0
scalar dtelecom_network.node[47].content_store 	decision_no[47] 	0
scalar dtelecom_network.node[47].content_store 	decision_ratio[47] 	0
scalar dtelecom_network.node[48].core_layer 	interests[48] 	12616
scalar dtelecom_network.node[48].core_layer 	data[48] 	9186
scalar dtelecom_network.node[48].content_store 	p_hit[48] 	0.27163918833228
scalar dtelecom_network.node[48].content_store 	hits[48] 	3427
scalar dtelecom_network.node[48].content_store 	misses[48] 	9189
scalar dtelecom_network.node[48].content_store 	decision_yes[48] 	3
scalar dtelecom_network.node[48].content_store 	decision_no[48] 	9183
scalar dtelecom_network.node[48].content_store 	decision_ratio[48] 	0.00032658393207054
scalar dtelecom_network.node[49].core_layer 	interests[49] 	12748
scalar dtelecom_network.node[49].core_layer 	data[49] 	9203
scalar dtelecom_network.node[49].content_store 	p_hit[49] 	0.27808283652338
scalar dtelecom_network.node[49].content_store 	hits[49] 	3545
scalar dtelecom_network.node[49].content_store 	misses[49] 	9203
scalar dtelecom_network.node[49].content_store 	decision_yes[49] 	3
scalar dtelecom_network.node[49].content_store 	decision_no[49] 	9200
scalar dtelecom_network.node[49].content_store 	decision_ratio[49] 	0.00032598065848093
scalar dtelecom_network.node[50].core_layer 	interests[50] 	12364
scalar dtelecom_network.node[50].core_layer 	data[50] 	9401
scalar dtelecom_network.node[50].content_store 	p_hit[50] 	0.23956648333873
scalar dtelecom_network.node[50].content_store 	hits[50] 	2962
scalar dtelecom_network.node[50].content_store 	misses[50] 	9402
scalar dtelecom_network.node[50].content_store 	decision_yes[50] 	2
scalar dtelecom_network.node[50].content_store 	decision_no[50] 	9399
scalar dtelecom_network.node[50].content_store 	decision_ratio[50] 	0.00021274332517817
scalar dtelecom_network.node[51].core_layer 	interests[51] 	13154
scalar dtelecom_network.node[51].core_layer 	data[51] 	9347
scalar dtelecom_network.node[51].content_store 	p_hit[51] 	0.28934164512696
scalar dtelecom_network.node[51].content_store 	hits[51] 	3806
scalar dtelecom_network.node[51].content_store 	misses[51] 	9348
scalar dtelecom_network.node[51].content_store 	decision_yes[51] 	1
scalar dtelecom_network.node[51].content_store 	decision_no[51] 	9346
scalar dtelecom_network.node[51].content_store 	decision_ratio[51] 	0.00010698619878036
scalar dtelecom_network.node[52].core_layer 	interests[52] 	0
scalar dtelecom_network.node[52].core_layer 	data[52] 	0
scalar dtelecom_network.node[52].content_store 	p_hit[52] 	-nan
scalar dtelecom_network.node[52].content_store 	hits[52] 	0
scalar dtelecom_network.node[52].content_store 	misses[52] 	0
scalar dtelecom_network.node[52].content_store 	decision_yes[52] 	0
scalar dtelecom_network.node[52].content_store 	decision_no[52] 	0
scalar dtelecom_network.node[52].content_store 	decision_ratio[52] 	0
scalar dtelecom_network.node[53].core_layer 	interests[53] 	12564
scalar dtelecom_network.node[53].core_layer 	data[53] 	9228
scalar dtelecom_network.node[53].content_store 	p_hit[53] 	0.26536134988857
scalar dtelecom_network.node[53].content_store 	hits[53] 	3334
scalar dtelecom_network.node[53].content_store 	misses[53] 	9230
scalar dtelecom_network.node[53].content_store 	decision_yes[53] 	3
scalar dtelecom_network.node[53].content_store 	decision_no[53] 	9225
scalar dtelecom_network.node[53].content_store 	decision_ratio[53] 	0.00032509752925878
scalar dtelecom_network.node[54].core_layer 	interests[54] 	12716
scalar dtelecom_network.node[54].core_layer 	data[54] 	9274
scalar dtelecom_network.node[54].content_store 	p_hit[54] 	0.27076124567474
scalar dtelecom_network.node[54].content_store 	hits[54] 	3443
scalar dtelecom_network.node[54].content_store 	misses[54] 	9273
scalar dtelecom_network.node[54].content_store 	decision_yes[54] 	4
scalar dtelecom_network.node[54].content_store 	decision_no[54] 	9270
scalar dtelecom_network.node[54].content_store 	decision_ratio[54] 	0.00043131334914816
scalar dtelecom_network.node[55].core_layer 	interests[55] 	12548
scalar dtelecom_network.node[55].core_layer 	data[55] 	9235
scalar dtelecom_network.node[55].content_store 	p_hit[55] 	0.26378705769844
scalar dtelecom_network.node[55].content_store 	hits[55] 	3310
scalar dtelecom_network.node[55].content_store 	misses[55] 	9238
scalar dtelecom_network.node[55].content_store 	decision_yes[55] 	4
scalar dtelecom_network.node[55].content_store 	decision_no[55] 	9231
scalar dtelecom_network.node[55].content_store 	decision_ratio[55] 	0.00043313481321061
scalar dtelecom_network.node[56].core_layer 	interests[56] 	12619
scalar dtelecom_network.node[56].core_layer 	data[56] 	9227
scalar dtelecom_network.node[56].content_store 	p_hit[56] 	0.26872176876139
scalar dtelecom_network.node[56].content_store 	hits[56] 	3391
scalar dtelecom_network.node[56].content_store 	misses[56] 	9228
scalar dtelecom_network.node[56].content_store 	decision_yes[56] 	0
scalar dtelecom_network.node[56].content_store 	decision_no[56] 	9227
scalar dtelecom_network.node[56].content_store 	decision_ratio[56] 	0
scalar dtelecom_network.node[57].core_layer 	interests[57] 	12385
scalar dtelecom_network.node[57].core_layer 	data[57] 	9221
scalar dtelecom_network.node[57].content_store 	p_hit[57] 	0.25555106984255
scalar dtelecom_network.node[57].content_store 	hits[57] 	3165
scalar dtelecom_network.node[57].content_store 	misses[57] 	9220
scalar dtelecom_network.node[57].content_store 	decision_yes[57] 	2
scalar dtelecom_network.node[57].content_store 	decision_no[57] 	9219
scalar dtelecom_network.node[57].content_store 	decision_ratio[57] 	0.00021689621516105
scalar dtelecom_network.node[58].core_layer 	interests[58] 	12769
scalar dtelecom_network.node[58].core_layer 	data[58] 	9141
scalar dtelecom_network.node[58].content_store 	p_hit[58] 	0.28373404338633
scalar dtelecom_network.node[58].content_store 	hits[58] 	3623
scalar dtelecom_network.node[58].content_store 	misses[58] 	9146
scalar dtelecom_network.node[58].content_store 	decision_yes[58] 	0
scalar dtelecom_network.node[58].content_store 	decision_no[58] 	9141
scalar dtelecom_network.node[58].content_store 	decision_ratio[58] 	0
scalar dtelecom_network.node[59].core_layer 	interests[59] 	13803
scalar dtelecom_network.node[59].core_layer 	data[59] 	9270
scalar dtelecom_network.node[59].content_store 	p_hit[59] 	0.32789973194233
scalar dtelecom_network.node[59].content_store 	hits[59] 	4526
scalar dtelecom_network.node[59].content_store 	misses[59] 	9277
scalar dtelecom_network.node[59].content_store 	decision_yes[59] 	1
scalar dtelecom_network.node[59].content_store 	decision_no[59] 	9269
scalar dtelecom_network.node[59].content_store 	decision_ratio[59] 	0.00010787486515642
scalar dtelecom_network.node[60].core_layer 	interests[60] 	0
scalar dtelecom_network.node[60].core_layer 	data[60] 	0
scalar dtelecom_network.node[60].content_store 	p_hit[60] 	-nan
scalar dtelecom_network.node[60].content_store 	hits[60] 	0
scalar dtelecom_network.node[60].content_store 	misses[60] 	0
scalar dtelecom_network.node[60].content_store 	decision_yes[60] 	0
scalar dtelecom_network.node[60].content_store 	decision_no[60] 	0
scalar dtelecom_network.node[60].content_store 	decision_ratio[60] 	0
scalar dtelecom_network.node[61].core_layer 	interests[61] 	0
scalar dtelecom_network.node[61].core_layer 	data[61] 	0
scalar dtelecom_network.node[61].content_store 	p_hit[61] 	-nan
scalar dtelecom_network.node[61].content_store 	hits[61] 	0
scalar dtelecom_network.node[61].content_store 	misses[61] 	0
scalar dtelecom_network.node[61].content_store 	decision_yes[61] 	0
scalar dtelecom_network.node[61].content_store 	decision_no[61] 	0
scalar dtelecom_network.node[61].content_store 	decision_ratio[61] 	0
scalar dtelecom_network.node[62].core_layer 	interests[62] 	12138
scalar dtelecom_network.node[62].core_layer 	data[62] 	9212
scalar dtelecom_network.node[62].content_store 	p_hit[62] 	0.24097874443895
scalar dtelecom_network.node[62].content_store 	hits[62] 	2925
scalar dtelecom_network.node[62].content_store 	misses[62] 	9213
scalar dtelecom_network.node[62].content_store 	decision_yes[62] 	4
scalar dtelecom_network.node[62].content_store 	decision_no[62] 	9208
scalar dtelecom_network.node[62].content_store 	decision_ratio[62] 	0.00043421623968736
scalar dtelecom_network.node[63].core_layer 	interests[63] 	0
scalar dtelecom_network.node[63].core_layer 	data[63] 	0
scalar dtelecom_network.node[63].content_store 	p_hit[63] 	-nan
scalar dtelecom_network.node[63].content_store 	hits[63] 	0
scalar dtelecom_network.node[63].content_store 	misses[63] 	0
scalar dtelecom_network.node[63].content_store 	decision_yes[63] 	0
scalar dtelecom_network.node[63].content_store 	decision_no[63] 	0
scalar dtelecom_network.node[63].content_store 	decision_ratio[63] 	0
scalar dtelecom_network.node[64].core_layer 	interests[64] 	14195
scalar dtelecom_network.node[64].core_layer 	repo_load[64] 	11620
scalar dtelecom_network.node[64].core_layer 	data[64] 	0
scalar dtelecom_network.node[64].content_store 	p_hit[64] 	0.1814019020782
scalar dtelecom_network.node[64].content_store 	hits[64] 	2575
scalar dtelecom_network.node[64].content_store 	misses[64] 	11620
scalar dtelecom_network.node[64].content_store 	decision_yes[64] 	4
scalar dtelecom_network.node[64].content_store 	decision_no[64] 	11616
scalar dtelecom_network.node[64].content_store 	decision_ratio[64] 	0.00034423407917384
scalar dtelecom_network.node[65].core_layer 	interests[65] 	17
scalar dtelecom_network.node[65].core_layer 	data[65] 	10
scalar dtelecom_network.node[65].content_store 	p_hit[65] 	0.41176470588235
scalar dtelecom_network.node[65].content_store 	hits[65] 	7
scalar dtelecom_network.node[65].content_store 	misses[65] 	10
scalar dtelecom_network.node[65].content_store 	decision_yes[65] 	0
scalar dtelecom_network.node[65].content_store 	decision_no[65] 	10
scalar dtelecom_network.node[65].content_store 	decision_ratio[65] 	0
scalar dtelecom_network.node[66].core_layer 	interests[66] 	12557
scalar dtelecom_network.node[66].core_layer 	data[66] 	9243
scalar dtelecom_network.node[66].content_store 	p_hit[66] 	0.26335908258342
scalar dtelecom_network.node[66].content_store 	hits[66] 	3307
scalar dtelecom_network.node[66].content_store 	misses[66] 	9250
scalar dtelecom_network.node[66].content_store 	decision_yes[66] 	2
scalar dtelecom_network.node[66].content_store 	decision_no[66] 	9241
scalar dtelecom_network.node[66].content_store 	decision_ratio[66] 	0.00021637996321541
scalar dtelecom_network.node[67].core_layer 	interests[67] 	12230
scalar dtelecom_network.node[67].core_layer 	data[67] 	9119
scalar dtelecom_network.node[67].content_store 	p_hit[67] 	0.25429272281276
scalar dtelecom_network.node[67].content_store 	hits[67] 	3110
scalar dtelecom_network.node[67].content_store 	misses[67] 	9120
scalar dtelecom_network.node[67].content_store 	decision_yes[67] 	2
scalar dtelecom_network.node[67].content_store 	decision_no[67] 	9117
scalar dtelecom_network.node[67].content_store 	decision_ratio[67] 	0.0002193222941112
scalar dtelecom_network.client[3] 	hdistance[3] 	1.3620986944741
scalar dtelecom_network.client[3] 	downloads[3] 	12179
scalar dtelecom_network.client[3] 	avg_time[3] 	0.014569270037
scalar dtelecom_network.client[4] 	hdistance[4] 	1.2280194831999
scalar dtelecom_network.client[4] 	downloads[4] 	12113
scalar dtelecom_network.client[4] 	avg_time[4] 	0.044535501236
scalar dtelecom_network.client[8] 	hdistance[8] 	1.7563562889375
scalar dtelecom_network.client[8] 	downloads[8] 	11878
scalar dtelecom_network.client[8] 	avg_time[8] 	0.01853371113
scalar dtelecom_network.client[9] 	hdistance[9] 	1.8009004502251
scalar dtelecom_network.client[9] 	downloads[9] 	11994
scalar dtelecom_network.client[9] 	avg_time[9] 	0.018570977489
scalar dtelecom_network.client[17] 	hdistance[17] 	1.7103915413844
scalar dtelecom_network.client[17] 	downloads[17] 	12106
scalar dtelecom_network.client[17] 	avg_time[17] 	0.016281647431
scalar dtelecom_network.client[22] 	hdistance[22] 	1.8359034528998
scalar dtelecom_network.client[22] 	downloads[22] 	11932
scalar dtelecom_network.client[22] 	avg_time[22] 	0.01775656073
scalar dtelecom_network.client[23] 	hdistance[23] 	1.6139727159983
scalar dtelecom_network.client[23] 	downloads[23] 	12095
scalar dtelecom_network.client[23] 	avg_time[23] 	0.01610723045
scalar dtelecom_network.client[28] 	hdistance[28] 	1.8528370254468
scalar dtelecom_network.client[28] 	downloads[28] 	12143
scalar dtelecom_network.client[28] 	avg_time[28] 	0.020051660748
scalar dtelecom_network.client[30] 	hdistance[30] 	1.8506559031282
scalar dtelecom_network.client[30] 	downloads[30] 	11892
scalar dtelecom_network.client[30] 	avg_time[30] 	0.017907871995
scalar dtelecom_network.client[31] 	hdistance[31] 	1.8053185320189
scalar dtelecom_network.client[31] 	downloads[31] 	12071
scalar dtelecom_network.client[31] 	avg_time[31] 	0.019383755381
scalar dtelecom_network.client[32] 	hdistance[32] 	1.8357406785354
scalar dtelecom_network.client[32] 	downloads[32] 	11908
scalar dtelecom_network.client[32] 	avg_time[32] 	0.015658600568
scalar dtelecom_network.client[33] 	hdistance[33] 	1.7261434682461
scalar dtelecom_network.client[33] 	downloads[33] 	12156
scalar dtelecom_network.client[33] 	avg_time[33] 	0.016971640803
scalar dtelecom_network.client[36] 	hdistance[36] 	1.8416285832987
scalar dtelecom_network.client[36] 	downloads[36] 	12035
scalar dtelecom_network.client[36] 	avg_time[36] 	0.017990416844
scalar dtelecom_network.client[37] 	hdistance[37] 	1.8187095704097
scalar dtelecom_network.client[37] 	downloads[37] 	12058
scalar dtelecom_network.client[37] 	avg_time[37] 	0.017300382638
scalar dtelecom_network.client[40] 	hdistance[40] 	1.7570117072349
scalar dtelecom_network.client[40] 	downloads[40] 	11873
scalar dtelecom_network.client[40] 	avg_time[40] 	0.019377339811
scalar dtelecom_network.client[42] 	hdistance[42] 	1.808616474159
scalar dtelecom_network.client[42] 	downloads[42] 	11861
scalar dtelecom_network.client[42] 	avg_time[42] 	0.019378537814
scalar dtelecom_network.client[45] 	hdistance[45] 	1.743971094866
scalar dtelecom_network.client[45] 	downloads[45] 	11901
scalar dtelecom_network.client[45] 	avg_time[45] 	0.017818694627
scalar dtelecom_network.client[46] 	hdistance[46] 	1.8072219942552
scalar dtelecom_network.client[46] 	downloads[46] 	12185
scalar dtelecom_network.client[46] 	avg_time[46] 	0.019838753664
scalar dtelecom_network.client[48] 	hdistance[48] 	1.8557004627682
scalar dtelecom_network.client[48] 	downloads[48] 	11885
scalar dtelecom_network.client[48] 	avg_time[48] 	0.018754541549
scalar dtelecom_network.client[49] 	hdistance[49] 	1.8093706178339
scalar dtelecom_network.client[49] 	downloads[49] 	12123
scalar dtelecom_network.client[49] 	avg_time[49] 	0.0171952879
scalar dtelecom_network.client[50] 	hdistance[50] 	1.8741468286998
scalar dtelecom_network.client[50] 	downloads[50] 	12014
scalar dtelecom_network.client[50] 	avg_time[50] 	0.017443186984
scalar dtelecom_network.client[51] 	hdistance[51] 	1.8047877591313
scalar dtelecom_network.client[51] 	downloads[51] 	12156
scalar dtelecom_network.client[51] 	avg_time[51] 	0.017912686119
scalar dtelecom_network.client[53] 	hdistance[53] 	1.8463600569657
scalar dtelecom_network.client[53] 	downloads[53] 	11937
scalar dtelecom_network.client[53] 	avg_time[53] 	0.016886545004
scalar dtelecom_network.client[54] 	hdistance[54] 	1.8245859767653
scalar dtelecom_network.client[54] 	downloads[54] 	12137
scalar dtelecom_network.client[54] 	avg_time[54] 	0.018445622895
scalar dtelecom_network.client[55] 	hdistance[55] 	1.8101361573374
scalar dtelecom_network.client[55] 	downloads[55] 	11898
scalar dtelecom_network.client[55] 	avg_time[55] 	0.022218627573
scalar dtelecom_network.client[56] 	hdistance[56] 	1.8284091844293
scalar dtelecom_network.client[56] 	downloads[56] 	12151
scalar dtelecom_network.client[56] 	avg_time[56] 	0.016934228715
scalar dtelecom_network.client[57] 	hdistance[57] 	1.8544891640867
scalar dtelecom_network.client[57] 	downloads[57] 	11951
scalar dtelecom_network.client[57] 	avg_time[57] 	0.017036653435
scalar dtelecom_network.client[58] 	hdistance[58] 	1.7937301984326
scalar dtelecom_network.client[58] 	downloads[58] 	11994
scalar dtelecom_network.client[58] 	avg_time[58] 	0.019279924992
scalar dtelecom_network.client[59] 	hdistance[59] 	1.8298013245033
scalar dtelecom_network.client[59] 	downloads[59] 	12080
scalar dtelecom_network.client[59] 	avg_time[59] 	0.060414423983
scalar dtelecom_network.client[62] 	hdistance[62] 	2.3561747621854
scalar dtelecom_network.client[62] 	downloads[62] 	11879
scalar dtelecom_network.client[62] 	avg_time[62] 	0.066398435173
scalar dtelecom_network.client[66] 	hdistance[66] 	1.8933487183714
scalar dtelecom_network.client[66] 	downloads[66] 	12133
scalar dtelecom_network.client[66] 	avg_time[66] 	0.087167472666
scalar dtelecom_network.client[67] 	hdistance[67] 	1.9486620249979
scalar dtelecom_network.client[67] 	downloads[67] 	11921
scalar dtelecom_network.client[67] 	avg_time[67] 	0.073010021268
