version 2
run General-517-20160901-11:58:57-8710
attr a 0.9
attr cd ffc0.25
attr configname General
attr cr lru
attr datetime 20160901-11:58:57
attr experiment General
attr fsize 1
attr inifile hw5115/scenario_Y/omnetp.ini
attr iterationvars "$name=tree_4_3, $un=08, $rep=13, $cd=ffc0.25, $cr=lru, $fsize=1, $a=0.9, $sl=nrr, $ttl=1000, $variance=0.05"
attr iterationvars2 "$name=tree_4_3, $un=08, $rep=13, $cd=ffc0.25, $cr=lru, $fsize=1, $a=0.9, $sl=nrr, $ttl=1000, $variance=0.05, $repetition=0"
attr measurement "$name=tree_4_3, $un=08, $rep=13, $cd=ffc0.25, $cr=lru, $fsize=1, $a=0.9, $sl=nrr, $ttl=1000, $variance=0.05"
attr name tree_4_3
attr network networks.${name}_u${un}_r${rep}_network
attr processid 8710
attr rep 13
attr repetition 0
attr replication #0
attr resultdir results
attr runnumber 517
attr seedset 13
attr sl nrr
attr ttl 1000
attr un 08
attr variance 0.05

scalar . 	a 	0.9
scalar . 	fsize 	1
scalar . 	rep 	13
scalar . 	ttl 	1000
scalar . 	un 	08
scalar . 	variance 	0.05
scalar tree_4_3_u08_r13_network.content_distribution 	repo-0 	0
scalar tree_4_3_u08_r13_network.content_distribution 	client-0 	13
scalar tree_4_3_u08_r13_network.content_distribution 	client-1 	14
scalar tree_4_3_u08_r13_network.content_distribution 	client-2 	15
scalar tree_4_3_u08_r13_network.content_distribution 	client-3 	16
scalar tree_4_3_u08_r13_network.content_distribution 	client-4 	17
scalar tree_4_3_u08_r13_network.content_distribution 	client-5 	18
scalar tree_4_3_u08_r13_network.content_distribution 	client-6 	19
scalar tree_4_3_u08_r13_network.content_distribution 	client-7 	20
scalar tree_4_3_u08_r13_network.content_distribution 	client-8 	21
scalar tree_4_3_u08_r13_network.content_distribution 	client-9 	22
scalar tree_4_3_u08_r13_network.content_distribution 	client-10 	23
scalar tree_4_3_u08_r13_network.content_distribution 	client-11 	24
scalar tree_4_3_u08_r13_network.content_distribution 	client-12 	25
scalar tree_4_3_u08_r13_network.content_distribution 	client-13 	26
scalar tree_4_3_u08_r13_network.content_distribution 	client-14 	27
scalar tree_4_3_u08_r13_network.content_distribution 	client-15 	28
scalar tree_4_3_u08_r13_network.content_distribution 	client-16 	29
scalar tree_4_3_u08_r13_network.content_distribution 	client-17 	30
scalar tree_4_3_u08_r13_network.content_distribution 	client-18 	31
scalar tree_4_3_u08_r13_network.content_distribution 	client-19 	32
scalar tree_4_3_u08_r13_network.content_distribution 	client-20 	33
scalar tree_4_3_u08_r13_network.content_distribution 	client-21 	34
scalar tree_4_3_u08_r13_network.content_distribution 	client-22 	35
scalar tree_4_3_u08_r13_network.content_distribution 	client-23 	36
scalar tree_4_3_u08_r13_network.content_distribution 	client-24 	37
scalar tree_4_3_u08_r13_network.content_distribution 	client-25 	38
scalar tree_4_3_u08_r13_network.content_distribution 	client-26 	39
scalar tree_4_3_u08_r13_network.content_distribution 	repo-0_card 	100000
scalar tree_4_3_u08_r13_network.content_distribution 	repo-0_price 	0
scalar tree_4_3_u08_r13_network.statistics 	stabilization_time 	2105.6
scalar tree_4_3_u08_r13_network.statistics 	p_hit 	0.24570172817882
scalar tree_4_3_u08_r13_network.statistics 	interests 	24550.4
scalar tree_4_3_u08_r13_network.statistics 	data 	16462.375
scalar tree_4_3_u08_r13_network.statistics 	hdistance 	2.5872645341672
scalar tree_4_3_u08_r13_network.statistics 	avg_time 	0.004070959579
scalar tree_4_3_u08_r13_network.statistics 	downloads 	323509
scalar tree_4_3_u08_r13_network.statistics 	total_cost 	0
scalar tree_4_3_u08_r13_network.statistics 	total_replicas 	100000
scalar tree_4_3_u08_r13_network.statistics 	inner_hit 	0.44822246058069
scalar tree_4_3_u08_r13_network.node[0].core_layer 	interests[0] 	181272
scalar tree_4_3_u08_r13_network.node[0].core_layer 	repo_load[0] 	178505
scalar tree_4_3_u08_r13_network.node[0].core_layer 	data[0] 	0
scalar tree_4_3_u08_r13_network.node[0].core_layer 	repo_int[0] 	178505
scalar tree_4_3_u08_r13_network.node[0].content_store 	p_hit[0] 	0.015264354119776
scalar tree_4_3_u08_r13_network.node[0].content_store 	hits[0] 	2767
scalar tree_4_3_u08_r13_network.node[0].content_store 	misses[0] 	178505
scalar tree_4_3_u08_r13_network.node[0].content_store 	decision_yes[0] 	167
scalar tree_4_3_u08_r13_network.node[0].content_store 	decision_no[0] 	178338
scalar tree_4_3_u08_r13_network.node[0].content_store 	decision_ratio[0] 	0.00093554802386488
scalar tree_4_3_u08_r13_network.node[1].core_layer 	interests[1] 	130797
scalar tree_4_3_u08_r13_network.node[1].core_layer 	data[1] 	127535
scalar tree_4_3_u08_r13_network.node[1].content_store 	p_hit[1] 	0.02490118274884
scalar tree_4_3_u08_r13_network.node[1].content_store 	hits[1] 	3257
scalar tree_4_3_u08_r13_network.node[1].content_store 	misses[1] 	127540
scalar tree_4_3_u08_r13_network.node[1].content_store 	decision_yes[1] 	133
scalar tree_4_3_u08_r13_network.node[1].content_store 	decision_no[1] 	127402
scalar tree_4_3_u08_r13_network.node[1].content_store 	decision_ratio[1] 	0.0010428509820833
scalar tree_4_3_u08_r13_network.node[2].core_layer 	interests[2] 	63485
scalar tree_4_3_u08_r13_network.node[2].core_layer 	data[2] 	59927
scalar tree_4_3_u08_r13_network.node[2].content_store 	p_hit[2] 	0.056044734976766
scalar tree_4_3_u08_r13_network.node[2].content_store 	hits[2] 	3558
scalar tree_4_3_u08_r13_network.node[2].content_store 	misses[2] 	59927
scalar tree_4_3_u08_r13_network.node[2].content_store 	decision_yes[2] 	109
scalar tree_4_3_u08_r13_network.node[2].content_store 	decision_no[2] 	59818
scalar tree_4_3_u08_r13_network.node[2].content_store 	decision_ratio[2] 	0.0018188796368916
scalar tree_4_3_u08_r13_network.node[3].core_layer 	interests[3] 	12258
scalar tree_4_3_u08_r13_network.node[3].core_layer 	data[3] 	9514
scalar tree_4_3_u08_r13_network.node[3].content_store 	p_hit[3] 	0.22385380975689
scalar tree_4_3_u08_r13_network.node[3].content_store 	hits[3] 	2744
scalar tree_4_3_u08_r13_network.node[3].content_store 	misses[3] 	9514
scalar tree_4_3_u08_r13_network.node[3].content_store 	decision_yes[3] 	45
scalar tree_4_3_u08_r13_network.node[3].content_store 	decision_no[3] 	9469
scalar tree_4_3_u08_r13_network.node[3].content_store 	decision_ratio[3] 	0.004729871767921
scalar tree_4_3_u08_r13_network.node[4].core_layer 	interests[4] 	42430
scalar tree_4_3_u08_r13_network.node[4].core_layer 	data[4] 	39627
scalar tree_4_3_u08_r13_network.node[4].content_store 	p_hit[4] 	0.066038180532642
scalar tree_4_3_u08_r13_network.node[4].content_store 	hits[4] 	2802
scalar tree_4_3_u08_r13_network.node[4].content_store 	misses[4] 	39628
scalar tree_4_3_u08_r13_network.node[4].content_store 	decision_yes[4] 	93
scalar tree_4_3_u08_r13_network.node[4].content_store 	decision_no[4] 	39534
scalar tree_4_3_u08_r13_network.node[4].content_store 	decision_ratio[4] 	0.0023468846998259
scalar tree_4_3_u08_r13_network.node[5].core_layer 	interests[5] 	28531
scalar tree_4_3_u08_r13_network.node[5].core_layer 	data[5] 	25004
scalar tree_4_3_u08_r13_network.node[5].content_store 	p_hit[5] 	0.12358487259472
scalar tree_4_3_u08_r13_network.node[5].content_store 	hits[5] 	3526
scalar tree_4_3_u08_r13_network.node[5].content_store 	misses[5] 	25005
scalar tree_4_3_u08_r13_network.node[5].content_store 	decision_yes[5] 	48
scalar tree_4_3_u08_r13_network.node[5].content_store 	decision_no[5] 	24956
scalar tree_4_3_u08_r13_network.node[5].content_store 	decision_ratio[5] 	0.0019196928491441
scalar tree_4_3_u08_r13_network.node[6].core_layer 	interests[6] 	13689
scalar tree_4_3_u08_r13_network.node[6].core_layer 	data[6] 	10175
scalar tree_4_3_u08_r13_network.node[6].content_store 	p_hit[6] 	0.25670246183067
scalar tree_4_3_u08_r13_network.node[6].content_store 	hits[6] 	3514
scalar tree_4_3_u08_r13_network.node[6].content_store 	misses[6] 	10175
scalar tree_4_3_u08_r13_network.node[6].content_store 	decision_yes[6] 	73
scalar tree_4_3_u08_r13_network.node[6].content_store 	decision_no[6] 	10102
scalar tree_4_3_u08_r13_network.node[6].content_store 	decision_ratio[6] 	0.0071744471744472
scalar tree_4_3_u08_r13_network.node[7].core_layer 	interests[7] 	44450
scalar tree_4_3_u08_r13_network.node[7].core_layer 	data[7] 	40499
scalar tree_4_3_u08_r13_network.node[7].content_store 	p_hit[7] 	0.088863892013498
scalar tree_4_3_u08_r13_network.node[7].content_store 	hits[7] 	3950
scalar tree_4_3_u08_r13_network.node[7].content_store 	misses[7] 	40500
scalar tree_4_3_u08_r13_network.node[7].content_store 	decision_yes[7] 	103
scalar tree_4_3_u08_r13_network.node[7].content_store 	decision_no[7] 	40396
scalar tree_4_3_u08_r13_network.node[7].content_store 	decision_ratio[7] 	0.0025432726733993
scalar tree_4_3_u08_r13_network.node[8].core_layer 	interests[8] 	27475
scalar tree_4_3_u08_r13_network.node[8].core_layer 	data[8] 	24623
scalar tree_4_3_u08_r13_network.node[8].content_store 	p_hit[8] 	0.10380345768881
scalar tree_4_3_u08_r13_network.node[8].content_store 	hits[8] 	2852
scalar tree_4_3_u08_r13_network.node[8].content_store 	misses[8] 	24623
scalar tree_4_3_u08_r13_network.node[8].content_store 	decision_yes[8] 	59
scalar tree_4_3_u08_r13_network.node[8].content_store 	decision_no[8] 	24564
scalar tree_4_3_u08_r13_network.node[8].content_store 	decision_ratio[8] 	0.0023961336961378
scalar tree_4_3_u08_r13_network.node[9].core_layer 	interests[9] 	12054
scalar tree_4_3_u08_r13_network.node[9].core_layer 	data[9] 	9099
scalar tree_4_3_u08_r13_network.node[9].content_store 	p_hit[9] 	0.24514683922349
scalar tree_4_3_u08_r13_network.node[9].content_store 	hits[9] 	2955
scalar tree_4_3_u08_r13_network.node[9].content_store 	misses[9] 	9099
scalar tree_4_3_u08_r13_network.node[9].content_store 	decision_yes[9] 	36
scalar tree_4_3_u08_r13_network.node[9].content_store 	decision_no[9] 	9063
scalar tree_4_3_u08_r13_network.node[9].content_store 	decision_ratio[9] 	0.0039564787339268
scalar tree_4_3_u08_r13_network.node[10].core_layer 	interests[10] 	35620
scalar tree_4_3_u08_r13_network.node[10].core_layer 	data[10] 	32709
scalar tree_4_3_u08_r13_network.node[10].content_store 	p_hit[10] 	0.081723750701853
scalar tree_4_3_u08_r13_network.node[10].content_store 	hits[10] 	2911
scalar tree_4_3_u08_r13_network.node[10].content_store 	misses[10] 	32709
scalar tree_4_3_u08_r13_network.node[10].content_store 	decision_yes[10] 	89
scalar tree_4_3_u08_r13_network.node[10].content_store 	decision_no[10] 	32620
scalar tree_4_3_u08_r13_network.node[10].content_store 	decision_ratio[10] 	0.0027209636491486
scalar tree_4_3_u08_r13_network.node[11].core_layer 	interests[11] 	37447
scalar tree_4_3_u08_r13_network.node[11].core_layer 	data[11] 	33774
scalar tree_4_3_u08_r13_network.node[11].content_store 	p_hit[11] 	0.09808529388202
scalar tree_4_3_u08_r13_network.node[11].content_store 	hits[11] 	3673
scalar tree_4_3_u08_r13_network.node[11].content_store 	misses[11] 	33774
scalar tree_4_3_u08_r13_network.node[11].content_store 	decision_yes[11] 	92
scalar tree_4_3_u08_r13_network.node[11].content_store 	decision_no[11] 	33682
scalar tree_4_3_u08_r13_network.node[11].content_store 	decision_ratio[11] 	0.0027239888671759
scalar tree_4_3_u08_r13_network.node[12].core_layer 	interests[12] 	11164
scalar tree_4_3_u08_r13_network.node[12].core_layer 	data[12] 	8856
scalar tree_4_3_u08_r13_network.node[12].content_store 	p_hit[12] 	0.20673593694016
scalar tree_4_3_u08_r13_network.node[12].content_store 	hits[12] 	2308
scalar tree_4_3_u08_r13_network.node[12].content_store 	misses[12] 	8856
scalar tree_4_3_u08_r13_network.node[12].content_store 	decision_yes[12] 	32
scalar tree_4_3_u08_r13_network.node[12].content_store 	decision_no[12] 	8824
scalar tree_4_3_u08_r13_network.node[12].content_store 	decision_ratio[12] 	0.003613369467028
scalar tree_4_3_u08_r13_network.node[13].core_layer 	interests[13] 	12505
scalar tree_4_3_u08_r13_network.node[13].core_layer 	data[13] 	8709
scalar tree_4_3_u08_r13_network.node[13].content_store 	p_hit[13] 	0.30355857656937
scalar tree_4_3_u08_r13_network.node[13].content_store 	hits[13] 	3796
scalar tree_4_3_u08_r13_network.node[13].content_store 	misses[13] 	8709
scalar tree_4_3_u08_r13_network.node[13].content_store 	decision_yes[13] 	29
scalar tree_4_3_u08_r13_network.node[13].content_store 	decision_no[13] 	8680
scalar tree_4_3_u08_r13_network.node[13].content_store 	decision_ratio[13] 	0.0033298886209668
scalar tree_4_3_u08_r13_network.node[14].core_layer 	interests[14] 	12495
scalar tree_4_3_u08_r13_network.node[14].core_layer 	data[14] 	8805
scalar tree_4_3_u08_r13_network.node[14].content_store 	p_hit[14] 	0.2953181272509
scalar tree_4_3_u08_r13_network.node[14].content_store 	hits[14] 	3690
scalar tree_4_3_u08_r13_network.node[14].content_store 	misses[14] 	8805
scalar tree_4_3_u08_r13_network.node[14].content_store 	decision_yes[14] 	28
scalar tree_4_3_u08_r13_network.node[14].content_store 	decision_no[14] 	8777
scalar tree_4_3_u08_r13_network.node[14].content_store 	decision_ratio[14] 	0.0031800113571834
scalar tree_4_3_u08_r13_network.node[15].core_layer 	interests[15] 	12934
scalar tree_4_3_u08_r13_network.node[15].core_layer 	data[15] 	8885
scalar tree_4_3_u08_r13_network.node[15].content_store 	p_hit[15] 	0.31305087366631
scalar tree_4_3_u08_r13_network.node[15].content_store 	hits[15] 	4049
scalar tree_4_3_u08_r13_network.node[15].content_store 	misses[15] 	8885
scalar tree_4_3_u08_r13_network.node[15].content_store 	decision_yes[15] 	37
scalar tree_4_3_u08_r13_network.node[15].content_store 	decision_no[15] 	8848
scalar tree_4_3_u08_r13_network.node[15].content_store 	decision_ratio[15] 	0.0041643218908272
scalar tree_4_3_u08_r13_network.node[16].core_layer 	interests[16] 	12969
scalar tree_4_3_u08_r13_network.node[16].core_layer 	data[16] 	8805
scalar tree_4_3_u08_r13_network.node[16].content_store 	p_hit[16] 	0.32099622175958
scalar tree_4_3_u08_r13_network.node[16].content_store 	hits[16] 	4163
scalar tree_4_3_u08_r13_network.node[16].content_store 	misses[16] 	8806
scalar tree_4_3_u08_r13_network.node[16].content_store 	decision_yes[16] 	37
scalar tree_4_3_u08_r13_network.node[16].content_store 	decision_no[16] 	8768
scalar tree_4_3_u08_r13_network.node[16].content_store 	decision_ratio[16] 	0.0042021578648495
scalar tree_4_3_u08_r13_network.node[17].core_layer 	interests[17] 	12385
scalar tree_4_3_u08_r13_network.node[17].core_layer 	data[17] 	8700
scalar tree_4_3_u08_r13_network.node[17].content_store 	p_hit[17] 	0.29753734356076
scalar tree_4_3_u08_r13_network.node[17].content_store 	hits[17] 	3685
scalar tree_4_3_u08_r13_network.node[17].content_store 	misses[17] 	8700
scalar tree_4_3_u08_r13_network.node[17].content_store 	decision_yes[17] 	26
scalar tree_4_3_u08_r13_network.node[17].content_store 	decision_no[17] 	8674
scalar tree_4_3_u08_r13_network.node[17].content_store 	decision_ratio[17] 	0.0029885057471264
scalar tree_4_3_u08_r13_network.node[18].core_layer 	interests[18] 	12829
scalar tree_4_3_u08_r13_network.node[18].core_layer 	data[18] 	8757
scalar tree_4_3_u08_r13_network.node[18].content_store 	p_hit[18] 	0.31732792891106
scalar tree_4_3_u08_r13_network.node[18].content_store 	hits[18] 	4071
scalar tree_4_3_u08_r13_network.node[18].content_store 	misses[18] 	8758
scalar tree_4_3_u08_r13_network.node[18].content_store 	decision_yes[18] 	25
scalar tree_4_3_u08_r13_network.node[18].content_store 	decision_no[18] 	8732
scalar tree_4_3_u08_r13_network.node[18].content_store 	decision_ratio[18] 	0.0028548589699669
scalar tree_4_3_u08_r13_network.node[19].core_layer 	interests[19] 	12530
scalar tree_4_3_u08_r13_network.node[19].core_layer 	data[19] 	8758
scalar tree_4_3_u08_r13_network.node[19].content_store 	p_hit[19] 	0.30103750997606
scalar tree_4_3_u08_r13_network.node[19].content_store 	hits[19] 	3772
scalar tree_4_3_u08_r13_network.node[19].content_store 	misses[19] 	8758
scalar tree_4_3_u08_r13_network.node[19].content_store 	decision_yes[19] 	26
scalar tree_4_3_u08_r13_network.node[19].content_store 	decision_no[19] 	8732
scalar tree_4_3_u08_r13_network.node[19].content_store 	decision_ratio[19] 	0.0029687143183375
scalar tree_4_3_u08_r13_network.node[20].core_layer 	interests[20] 	12677
scalar tree_4_3_u08_r13_network.node[20].core_layer 	data[20] 	8900
scalar tree_4_3_u08_r13_network.node[20].content_store 	p_hit[20] 	0.29802003628619
scalar tree_4_3_u08_r13_network.node[20].content_store 	hits[20] 	3778
scalar tree_4_3_u08_r13_network.node[20].content_store 	misses[20] 	8899
scalar tree_4_3_u08_r13_network.node[20].content_store 	decision_yes[20] 	32
scalar tree_4_3_u08_r13_network.node[20].content_store 	decision_no[20] 	8868
scalar tree_4_3_u08_r13_network.node[20].content_store 	decision_ratio[20] 	0.0035955056179775
scalar tree_4_3_u08_r13_network.node[21].core_layer 	interests[21] 	12352
scalar tree_4_3_u08_r13_network.node[21].core_layer 	data[21] 	8671
scalar tree_4_3_u08_r13_network.node[21].content_store 	p_hit[21] 	0.29800841968912
scalar tree_4_3_u08_r13_network.node[21].content_store 	hits[21] 	3681
scalar tree_4_3_u08_r13_network.node[21].content_store 	misses[21] 	8671
scalar tree_4_3_u08_r13_network.node[21].content_store 	decision_yes[21] 	27
scalar tree_4_3_u08_r13_network.node[21].content_store 	decision_no[21] 	8644
scalar tree_4_3_u08_r13_network.node[21].content_store 	decision_ratio[21] 	0.0031138277015338
scalar tree_4_3_u08_r13_network.node[22].core_layer 	interests[22] 	12474
scalar tree_4_3_u08_r13_network.node[22].core_layer 	data[22] 	8721
scalar tree_4_3_u08_r13_network.node[22].content_store 	p_hit[22] 	0.30070546737213
scalar tree_4_3_u08_r13_network.node[22].content_store 	hits[22] 	3751
scalar tree_4_3_u08_r13_network.node[22].content_store 	misses[22] 	8723
scalar tree_4_3_u08_r13_network.node[22].content_store 	decision_yes[22] 	44
scalar tree_4_3_u08_r13_network.node[22].content_store 	decision_no[22] 	8677
scalar tree_4_3_u08_r13_network.node[22].content_store 	decision_ratio[22] 	0.0050452929709896
scalar tree_4_3_u08_r13_network.node[23].core_layer 	interests[23] 	12917
scalar tree_4_3_u08_r13_network.node[23].core_layer 	data[23] 	8942
scalar tree_4_3_u08_r13_network.node[23].content_store 	p_hit[23] 	0.30773399396145
scalar tree_4_3_u08_r13_network.node[23].content_store 	hits[23] 	3975
scalar tree_4_3_u08_r13_network.node[23].content_store 	misses[23] 	8942
scalar tree_4_3_u08_r13_network.node[23].content_store 	decision_yes[23] 	28
scalar tree_4_3_u08_r13_network.node[23].content_store 	decision_no[23] 	8914
scalar tree_4_3_u08_r13_network.node[23].content_store 	decision_ratio[23] 	0.0031312905390293
scalar tree_4_3_u08_r13_network.node[24].core_layer 	interests[24] 	12789
scalar tree_4_3_u08_r13_network.node[24].core_layer 	data[24] 	8793
scalar tree_4_3_u08_r13_network.node[24].content_store 	p_hit[24] 	0.31245601688951
scalar tree_4_3_u08_r13_network.node[24].content_store 	hits[24] 	3996
scalar tree_4_3_u08_r13_network.node[24].content_store 	misses[24] 	8793
scalar tree_4_3_u08_r13_network.node[24].content_store 	decision_yes[24] 	23
scalar tree_4_3_u08_r13_network.node[24].content_store 	decision_no[24] 	8770
scalar tree_4_3_u08_r13_network.node[24].content_store 	decision_ratio[24] 	0.0026157170476515
scalar tree_4_3_u08_r13_network.node[25].core_layer 	interests[25] 	12804
scalar tree_4_3_u08_r13_network.node[25].core_layer 	data[25] 	8772
scalar tree_4_3_u08_r13_network.node[25].content_store 	p_hit[25] 	0.31490159325211
scalar tree_4_3_u08_r13_network.node[25].content_store 	hits[25] 	4032
scalar tree_4_3_u08_r13_network.node[25].content_store 	misses[25] 	8772
scalar tree_4_3_u08_r13_network.node[25].content_store 	decision_yes[25] 	29
scalar tree_4_3_u08_r13_network.node[25].content_store 	decision_no[25] 	8743
scalar tree_4_3_u08_r13_network.node[25].content_store 	decision_ratio[25] 	0.0033059735522116
scalar tree_4_3_u08_r13_network.node[26].core_layer 	interests[26] 	12288
scalar tree_4_3_u08_r13_network.node[26].core_layer 	data[26] 	8592
scalar tree_4_3_u08_r13_network.node[26].content_store 	p_hit[26] 	0.30078125
scalar tree_4_3_u08_r13_network.node[26].content_store 	hits[26] 	3696
scalar tree_4_3_u08_r13_network.node[26].content_store 	misses[26] 	8592
scalar tree_4_3_u08_r13_network.node[26].content_store 	decision_yes[26] 	18
scalar tree_4_3_u08_r13_network.node[26].content_store 	decision_no[26] 	8574
scalar tree_4_3_u08_r13_network.node[26].content_store 	decision_ratio[26] 	0.0020949720670391
scalar tree_4_3_u08_r13_network.node[27].core_layer 	interests[27] 	12835
scalar tree_4_3_u08_r13_network.node[27].core_layer 	data[27] 	8865
scalar tree_4_3_u08_r13_network.node[27].content_store 	p_hit[27] 	0.30923256719907
scalar tree_4_3_u08_r13_network.node[27].content_store 	hits[27] 	3969
scalar tree_4_3_u08_r13_network.node[27].content_store 	misses[27] 	8866
scalar tree_4_3_u08_r13_network.node[27].content_store 	decision_yes[27] 	30
scalar tree_4_3_u08_r13_network.node[27].content_store 	decision_no[27] 	8835
scalar tree_4_3_u08_r13_network.node[27].content_store 	decision_ratio[27] 	0.0033840947546531
scalar tree_4_3_u08_r13_network.node[28].core_layer 	interests[28] 	12799
scalar tree_4_3_u08_r13_network.node[28].core_layer 	data[28] 	8832
scalar tree_4_3_u08_r13_network.node[28].content_store 	p_hit[28] 	0.30978982733026
scalar tree_4_3_u08_r13_network.node[28].content_store 	hits[28] 	3965
scalar tree_4_3_u08_r13_network.node[28].content_store 	misses[28] 	8834
scalar tree_4_3_u08_r13_network.node[28].content_store 	decision_yes[28] 	28
scalar tree_4_3_u08_r13_network.node[28].content_store 	decision_no[28] 	8804
scalar tree_4_3_u08_r13_network.node[28].content_store 	decision_ratio[28] 	0.0031702898550725
scalar tree_4_3_u08_r13_network.node[29].core_layer 	interests[29] 	12686
scalar tree_4_3_u08_r13_network.node[29].core_layer 	data[29] 	8778
scalar tree_4_3_u08_r13_network.node[29].content_store 	p_hit[29] 	0.30805612486205
scalar tree_4_3_u08_r13_network.node[29].content_store 	hits[29] 	3908
scalar tree_4_3_u08_r13_network.node[29].content_store 	misses[29] 	8778
scalar tree_4_3_u08_r13_network.node[29].content_store 	decision_yes[29] 	29
scalar tree_4_3_u08_r13_network.node[29].content_store 	decision_no[29] 	8749
scalar tree_4_3_u08_r13_network.node[29].content_store 	decision_ratio[29] 	0.0033037138300296
scalar tree_4_3_u08_r13_network.node[30].core_layer 	interests[30] 	12213
scalar tree_4_3_u08_r13_network.node[30].core_layer 	data[30] 	8701
scalar tree_4_3_u08_r13_network.node[30].content_store 	p_hit[30] 	0.28756243347253
scalar tree_4_3_u08_r13_network.node[30].content_store 	hits[30] 	3512
scalar tree_4_3_u08_r13_network.node[30].content_store 	misses[30] 	8701
scalar tree_4_3_u08_r13_network.node[30].content_store 	decision_yes[30] 	35
scalar tree_4_3_u08_r13_network.node[30].content_store 	decision_no[30] 	8666
scalar tree_4_3_u08_r13_network.node[30].content_store 	decision_ratio[30] 	0.00402252614642
scalar tree_4_3_u08_r13_network.node[31].core_layer 	interests[31] 	12621
scalar tree_4_3_u08_r13_network.node[31].core_layer 	data[31] 	8929
scalar tree_4_3_u08_r13_network.node[31].content_store 	p_hit[31] 	0.2925283258062
scalar tree_4_3_u08_r13_network.node[31].content_store 	hits[31] 	3692
scalar tree_4_3_u08_r13_network.node[31].content_store 	misses[31] 	8929
scalar tree_4_3_u08_r13_network.node[31].content_store 	decision_yes[31] 	23
scalar tree_4_3_u08_r13_network.node[31].content_store 	decision_no[31] 	8906
scalar tree_4_3_u08_r13_network.node[31].content_store 	decision_ratio[31] 	0.0025758763579348
scalar tree_4_3_u08_r13_network.node[32].core_layer 	interests[32] 	12991
scalar tree_4_3_u08_r13_network.node[32].core_layer 	data[32] 	8708
scalar tree_4_3_u08_r13_network.node[32].content_store 	p_hit[32] 	0.32968978523593
scalar tree_4_3_u08_r13_network.node[32].content_store 	hits[32] 	4283
scalar tree_4_3_u08_r13_network.node[32].content_store 	misses[32] 	8708
scalar tree_4_3_u08_r13_network.node[32].content_store 	decision_yes[32] 	27
scalar tree_4_3_u08_r13_network.node[32].content_store 	decision_no[32] 	8681
scalar tree_4_3_u08_r13_network.node[32].content_store 	decision_ratio[32] 	0.0031005971520441
scalar tree_4_3_u08_r13_network.node[33].core_layer 	interests[33] 	12401
scalar tree_4_3_u08_r13_network.node[33].core_layer 	data[33] 	8655
scalar tree_4_3_u08_r13_network.node[33].content_store 	p_hit[33] 	0.30199177485687
scalar tree_4_3_u08_r13_network.node[33].content_store 	hits[33] 	3745
scalar tree_4_3_u08_r13_network.node[33].content_store 	misses[33] 	8656
scalar tree_4_3_u08_r13_network.node[33].content_store 	decision_yes[33] 	33
scalar tree_4_3_u08_r13_network.node[33].content_store 	decision_no[33] 	8622
scalar tree_4_3_u08_r13_network.node[33].content_store 	decision_ratio[33] 	0.0038128249566724
scalar tree_4_3_u08_r13_network.node[34].core_layer 	interests[34] 	12477
scalar tree_4_3_u08_r13_network.node[34].core_layer 	data[34] 	8665
scalar tree_4_3_u08_r13_network.node[34].content_store 	p_hit[34] 	0.30552216077583
scalar tree_4_3_u08_r13_network.node[34].content_store 	hits[34] 	3812
scalar tree_4_3_u08_r13_network.node[34].content_store 	misses[34] 	8665
scalar tree_4_3_u08_r13_network.node[34].content_store 	decision_yes[34] 	25
scalar tree_4_3_u08_r13_network.node[34].content_store 	decision_no[34] 	8640
scalar tree_4_3_u08_r13_network.node[34].content_store 	decision_ratio[34] 	0.0028851702250433
scalar tree_4_3_u08_r13_network.node[35].core_layer 	interests[35] 	12508
scalar tree_4_3_u08_r13_network.node[35].core_layer 	data[35] 	8690
scalar tree_4_3_u08_r13_network.node[35].content_store 	p_hit[35] 	0.30524464342821
scalar tree_4_3_u08_r13_network.node[35].content_store 	hits[35] 	3818
scalar tree_4_3_u08_r13_network.node[35].content_store 	misses[35] 	8690
scalar tree_4_3_u08_r13_network.node[35].content_store 	decision_yes[35] 	31
scalar tree_4_3_u08_r13_network.node[35].content_store 	decision_no[35] 	8659
scalar tree_4_3_u08_r13_network.node[35].content_store 	decision_ratio[35] 	0.0035673187571922
scalar tree_4_3_u08_r13_network.node[36].core_layer 	interests[36] 	12823
scalar tree_4_3_u08_r13_network.node[36].core_layer 	data[36] 	9002
scalar tree_4_3_u08_r13_network.node[36].content_store 	p_hit[36] 	0.29798019184278
scalar tree_4_3_u08_r13_network.node[36].content_store 	hits[36] 	3821
scalar tree_4_3_u08_r13_network.node[36].content_store 	misses[36] 	9002
scalar tree_4_3_u08_r13_network.node[36].content_store 	decision_yes[36] 	43
scalar tree_4_3_u08_r13_network.node[36].content_store 	decision_no[36] 	8959
scalar tree_4_3_u08_r13_network.node[36].content_store 	decision_ratio[36] 	0.0047767162852699
scalar tree_4_3_u08_r13_network.node[37].core_layer 	interests[37] 	12835
scalar tree_4_3_u08_r13_network.node[37].core_layer 	data[37] 	8807
scalar tree_4_3_u08_r13_network.node[37].content_store 	p_hit[37] 	0.31382937280873
scalar tree_4_3_u08_r13_network.node[37].content_store 	hits[37] 	4028
scalar tree_4_3_u08_r13_network.node[37].content_store 	misses[37] 	8807
scalar tree_4_3_u08_r13_network.node[37].content_store 	decision_yes[37] 	28
scalar tree_4_3_u08_r13_network.node[37].content_store 	decision_no[37] 	8779
scalar tree_4_3_u08_r13_network.node[37].content_store 	decision_ratio[37] 	0.0031792892017713
scalar tree_4_3_u08_r13_network.node[38].core_layer 	interests[38] 	12764
scalar tree_4_3_u08_r13_network.node[38].core_layer 	data[38] 	8822
scalar tree_4_3_u08_r13_network.node[38].content_store 	p_hit[38] 	0.30883735506111
scalar tree_4_3_u08_r13_network.node[38].content_store 	hits[38] 	3942
scalar tree_4_3_u08_r13_network.node[38].content_store 	misses[38] 	8822
scalar tree_4_3_u08_r13_network.node[38].content_store 	decision_yes[38] 	30
scalar tree_4_3_u08_r13_network.node[38].content_store 	decision_no[38] 	8792
scalar tree_4_3_u08_r13_network.node[38].content_store 	decision_ratio[38] 	0.0034005894355022
scalar tree_4_3_u08_r13_network.node[39].core_layer 	interests[39] 	12443
scalar tree_4_3_u08_r13_network.node[39].core_layer 	data[39] 	8889
scalar tree_4_3_u08_r13_network.node[39].content_store 	p_hit[39] 	0.28562243831873
scalar tree_4_3_u08_r13_network.node[39].content_store 	hits[39] 	3554
scalar tree_4_3_u08_r13_network.node[39].content_store 	misses[39] 	8889
scalar tree_4_3_u08_r13_network.node[39].content_store 	decision_yes[39] 	26
scalar tree_4_3_u08_r13_network.node[39].content_store 	decision_no[39] 	8863
scalar tree_4_3_u08_r13_network.node[39].content_store 	decision_ratio[39] 	0.002924963437957
scalar tree_4_3_u08_r13_network.client[13] 	hdistance[13] 	2.623804374948
scalar tree_4_3_u08_r13_network.client[13] 	downloads[13] 	12023
scalar tree_4_3_u08_r13_network.client[13] 	avg_time[13] 	0.00411411038
scalar tree_4_3_u08_r13_network.client[14] 	hdistance[14] 	2.6336296419374
scalar tree_4_3_u08_r13_network.client[14] 	downloads[14] 	12037
scalar tree_4_3_u08_r13_network.client[14] 	avg_time[14] 	0.004142058978
scalar tree_4_3_u08_r13_network.client[15] 	hdistance[15] 	2.5600993377483
scalar tree_4_3_u08_r13_network.client[15] 	downloads[15] 	12080
scalar tree_4_3_u08_r13_network.client[15] 	avg_time[15] 	0.004014235392
scalar tree_4_3_u08_r13_network.client[16] 	hdistance[16] 	2.5864389669387
scalar tree_4_3_u08_r13_network.client[16] 	downloads[16] 	11887
scalar tree_4_3_u08_r13_network.client[16] 	avg_time[16] 	0.004079304188
scalar tree_4_3_u08_r13_network.client[17] 	hdistance[17] 	2.6234763733511
scalar tree_4_3_u08_r13_network.client[17] 	downloads[17] 	11978
scalar tree_4_3_u08_r13_network.client[17] 	avg_time[17] 	0.004145263347
scalar tree_4_3_u08_r13_network.client[18] 	hdistance[18] 	2.5277593085106
scalar tree_4_3_u08_r13_network.client[18] 	downloads[18] 	12032
scalar tree_4_3_u08_r13_network.client[18] 	avg_time[18] 	0.00398159705
scalar tree_4_3_u08_r13_network.client[19] 	hdistance[19] 	2.5926521628714
scalar tree_4_3_u08_r13_network.client[19] 	downloads[19] 	11813
scalar tree_4_3_u08_r13_network.client[19] 	avg_time[19] 	0.004070258629
scalar tree_4_3_u08_r13_network.client[20] 	hdistance[20] 	2.5626713182158
scalar tree_4_3_u08_r13_network.client[20] 	downloads[20] 	12039
scalar tree_4_3_u08_r13_network.client[20] 	avg_time[20] 	0.004041364142
scalar tree_4_3_u08_r13_network.client[21] 	hdistance[21] 	2.5916199715648
scalar tree_4_3_u08_r13_network.client[21] 	downloads[21] 	11957
scalar tree_4_3_u08_r13_network.client[21] 	avg_time[21] 	0.004078612005
scalar tree_4_3_u08_r13_network.client[22] 	hdistance[22] 	2.6102421796165
scalar tree_4_3_u08_r13_network.client[22] 	downloads[22] 	11892
scalar tree_4_3_u08_r13_network.client[22] 	avg_time[22] 	0.004132669306
scalar tree_4_3_u08_r13_network.client[23] 	hdistance[23] 	2.5520567142033
scalar tree_4_3_u08_r13_network.client[23] 	downloads[23] 	12131
scalar tree_4_3_u08_r13_network.client[23] 	avg_time[23] 	0.004021594512
scalar tree_4_3_u08_r13_network.client[24] 	hdistance[24] 	2.560455311973
scalar tree_4_3_u08_r13_network.client[24] 	downloads[24] 	11860
scalar tree_4_3_u08_r13_network.client[24] 	avg_time[24] 	0.004034904292
scalar tree_4_3_u08_r13_network.client[25] 	hdistance[25] 	2.548081755738
scalar tree_4_3_u08_r13_network.client[25] 	downloads[25] 	11938
scalar tree_4_3_u08_r13_network.client[25] 	avg_time[25] 	0.004013399592
scalar tree_4_3_u08_r13_network.client[26] 	hdistance[26] 	2.6120296946179
scalar tree_4_3_u08_r13_network.client[26] 	downloads[26] 	11854
scalar tree_4_3_u08_r13_network.client[26] 	avg_time[26] 	0.004106627711
scalar tree_4_3_u08_r13_network.client[27] 	hdistance[27] 	2.5885865958859
scalar tree_4_3_u08_r13_network.client[27] 	downloads[27] 	12056
scalar tree_4_3_u08_r13_network.client[27] 	avg_time[27] 	0.004045434396
scalar tree_4_3_u08_r13_network.client[28] 	hdistance[28] 	2.5587007348029
scalar tree_4_3_u08_r13_network.client[28] 	downloads[28] 	11976
scalar tree_4_3_u08_r13_network.client[28] 	avg_time[28] 	0.004031709574
scalar tree_4_3_u08_r13_network.client[29] 	hdistance[29] 	2.5697820095214
scalar tree_4_3_u08_r13_network.client[29] 	downloads[29] 	11973
scalar tree_4_3_u08_r13_network.client[29] 	avg_time[29] 	0.004022714786
scalar tree_4_3_u08_r13_network.client[30] 	hdistance[30] 	2.6318662859063
scalar tree_4_3_u08_r13_network.client[30] 	downloads[30] 	11906
scalar tree_4_3_u08_r13_network.client[30] 	avg_time[30] 	0.004132703213
scalar tree_4_3_u08_r13_network.client[31] 	hdistance[31] 	2.6202593991135
scalar tree_4_3_u08_r13_network.client[31] 	downloads[31] 	12182
scalar tree_4_3_u08_r13_network.client[31] 	avg_time[31] 	0.004138678003
scalar tree_4_3_u08_r13_network.client[32] 	hdistance[32] 	2.5256109809173
scalar tree_4_3_u08_r13_network.client[32] 	downloads[32] 	11948
scalar tree_4_3_u08_r13_network.client[32] 	avg_time[32] 	0.003981081705
scalar tree_4_3_u08_r13_network.client[33] 	hdistance[33] 	2.61175580222
scalar tree_4_3_u08_r13_network.client[33] 	downloads[33] 	11892
scalar tree_4_3_u08_r13_network.client[33] 	avg_time[33] 	0.00411689757
scalar tree_4_3_u08_r13_network.client[34] 	hdistance[34] 	2.5967552118359
scalar tree_4_3_u08_r13_network.client[34] 	downloads[34] 	11896
scalar tree_4_3_u08_r13_network.client[34] 	avg_time[34] 	0.004096500027
scalar tree_4_3_u08_r13_network.client[35] 	hdistance[35] 	2.5923721709975
scalar tree_4_3_u08_r13_network.client[35] 	downloads[35] 	11930
scalar tree_4_3_u08_r13_network.client[35] 	avg_time[35] 	0.004092704484
scalar tree_4_3_u08_r13_network.client[36] 	hdistance[36] 	2.5722796855606
scalar tree_4_3_u08_r13_network.client[36] 	downloads[36] 	12085
scalar tree_4_3_u08_r13_network.client[36] 	avg_time[36] 	0.00405212775
scalar tree_4_3_u08_r13_network.client[37] 	hdistance[37] 	2.5668805733811
scalar tree_4_3_u08_r13_network.client[37] 	downloads[37] 	11999
scalar tree_4_3_u08_r13_network.client[37] 	avg_time[37] 	0.004030999578
scalar tree_4_3_u08_r13_network.client[38] 	hdistance[38] 	2.589558502602
scalar tree_4_3_u08_r13_network.client[38] 	downloads[38] 	11914
scalar tree_4_3_u08_r13_network.client[38] 	avg_time[38] 	0.004069998704
scalar tree_4_3_u08_r13_network.client[39] 	hdistance[39] 	2.6467173575341
scalar tree_4_3_u08_r13_network.client[39] 	downloads[39] 	12231
scalar tree_4_3_u08_r13_network.client[39] 	avg_time[39] 	0.004128359322
