version 2
run General-66-20160902-12:58:50-7280
attr a 0.9
attr cd wfc0.01
attr configname General
attr cr lru
attr datetime 20160902-12:58:50
attr experiment General
attr fsize 1
attr inifile hw5115/scenario_Y/omnetp.ini
attr iterationvars "$name=tree_4_3, $un=03, $rep=7, $cd=wfc0.01, $cr=lru, $fsize=1, $a=0.9, $sl=nrr, $ttl=1000, $variance=0.05"
attr iterationvars2 "$name=tree_4_3, $un=03, $rep=7, $cd=wfc0.01, $cr=lru, $fsize=1, $a=0.9, $sl=nrr, $ttl=1000, $variance=0.05, $repetition=0"
attr measurement "$name=tree_4_3, $un=03, $rep=7, $cd=wfc0.01, $cr=lru, $fsize=1, $a=0.9, $sl=nrr, $ttl=1000, $variance=0.05"
attr name tree_4_3
attr network networks.${name}_u${un}_r${rep}_network
attr processid 7280
attr rep 7
attr repetition 0
attr replication #0
attr resultdir results
attr runnumber 66
attr seedset 7
attr sl nrr
attr ttl 1000
attr un 03
attr variance 0.05

scalar . 	a 	0.9
scalar . 	fsize 	1
scalar . 	rep 	7
scalar . 	ttl 	1000
scalar . 	un 	03
scalar . 	variance 	0.05
scalar tree_4_3_u03_r7_network.content_distribution 	repo-0 	0
scalar tree_4_3_u03_r7_network.content_distribution 	client-0 	13
scalar tree_4_3_u03_r7_network.content_distribution 	client-1 	14
scalar tree_4_3_u03_r7_network.content_distribution 	client-2 	15
scalar tree_4_3_u03_r7_network.content_distribution 	client-3 	16
scalar tree_4_3_u03_r7_network.content_distribution 	client-4 	17
scalar tree_4_3_u03_r7_network.content_distribution 	client-5 	18
scalar tree_4_3_u03_r7_network.content_distribution 	client-6 	19
scalar tree_4_3_u03_r7_network.content_distribution 	client-7 	20
scalar tree_4_3_u03_r7_network.content_distribution 	client-8 	21
scalar tree_4_3_u03_r7_network.content_distribution 	client-9 	22
scalar tree_4_3_u03_r7_network.content_distribution 	client-10 	23
scalar tree_4_3_u03_r7_network.content_distribution 	client-11 	24
scalar tree_4_3_u03_r7_network.content_distribution 	client-12 	25
scalar tree_4_3_u03_r7_network.content_distribution 	client-13 	26
scalar tree_4_3_u03_r7_network.content_distribution 	client-14 	27
scalar tree_4_3_u03_r7_network.content_distribution 	client-15 	28
scalar tree_4_3_u03_r7_network.content_distribution 	client-16 	29
scalar tree_4_3_u03_r7_network.content_distribution 	client-17 	30
scalar tree_4_3_u03_r7_network.content_distribution 	client-18 	31
scalar tree_4_3_u03_r7_network.content_distribution 	client-19 	32
scalar tree_4_3_u03_r7_network.content_distribution 	client-20 	33
scalar tree_4_3_u03_r7_network.content_distribution 	client-21 	34
scalar tree_4_3_u03_r7_network.content_distribution 	client-22 	35
scalar tree_4_3_u03_r7_network.content_distribution 	client-23 	36
scalar tree_4_3_u03_r7_network.content_distribution 	client-24 	37
scalar tree_4_3_u03_r7_network.content_distribution 	client-25 	38
scalar tree_4_3_u03_r7_network.content_distribution 	client-26 	39
scalar tree_4_3_u03_r7_network.content_distribution 	repo-0_card 	100000
scalar tree_4_3_u03_r7_network.content_distribution 	repo-0_price 	0
scalar tree_4_3_u03_r7_network.statistics 	stabilization_time 	961.3
scalar tree_4_3_u03_r7_network.statistics 	p_hit 	0.22106172150735
scalar tree_4_3_u03_r7_network.statistics 	interests 	25240.825
scalar tree_4_3_u03_r7_network.statistics 	data 	17136.725
scalar tree_4_3_u03_r7_network.statistics 	hdistance 	2.709128528361
scalar tree_4_3_u03_r7_network.statistics 	avg_time 	0.004229356817
scalar tree_4_3_u03_r7_network.statistics 	downloads 	324165
scalar tree_4_3_u03_r7_network.statistics 	total_cost 	0
scalar tree_4_3_u03_r7_network.statistics 	total_replicas 	100000
scalar tree_4_3_u03_r7_network.statistics 	inner_hit 	0.40568537627443
scalar tree_4_3_u03_r7_network.node[0].core_layer 	interests[0] 	195136
scalar tree_4_3_u03_r7_network.node[0].core_layer 	repo_load[0] 	192656
scalar tree_4_3_u03_r7_network.node[0].core_layer 	data[0] 	0
scalar tree_4_3_u03_r7_network.node[0].core_layer 	repo_int[0] 	192656
scalar tree_4_3_u03_r7_network.node[0].content_store 	p_hit[0] 	0.012709084945884
scalar tree_4_3_u03_r7_network.node[0].content_store 	hits[0] 	2480
scalar tree_4_3_u03_r7_network.node[0].content_store 	misses[0] 	192656
scalar tree_4_3_u03_r7_network.node[0].content_store 	decision_yes[0] 	2985
scalar tree_4_3_u03_r7_network.node[0].content_store 	decision_no[0] 	189671
scalar tree_4_3_u03_r7_network.node[0].content_store 	decision_ratio[0] 	0.015493937380616
scalar tree_4_3_u03_r7_network.node[1].core_layer 	interests[1] 	69870
scalar tree_4_3_u03_r7_network.node[1].core_layer 	data[1] 	68660
scalar tree_4_3_u03_r7_network.node[1].content_store 	p_hit[1] 	0.017317876055532
scalar tree_4_3_u03_r7_network.node[1].content_store 	hits[1] 	1210
scalar tree_4_3_u03_r7_network.node[1].content_store 	misses[1] 	68660
scalar tree_4_3_u03_r7_network.node[1].content_store 	decision_yes[1] 	715
scalar tree_4_3_u03_r7_network.node[1].content_store 	decision_no[1] 	67945
scalar tree_4_3_u03_r7_network.node[1].content_store 	decision_ratio[1] 	0.010413632391494
scalar tree_4_3_u03_r7_network.node[2].core_layer 	interests[2] 	102174
scalar tree_4_3_u03_r7_network.node[2].core_layer 	data[2] 	99999
scalar tree_4_3_u03_r7_network.node[2].content_store 	p_hit[2] 	0.021267641474348
scalar tree_4_3_u03_r7_network.node[2].content_store 	hits[2] 	2173
scalar tree_4_3_u03_r7_network.node[2].content_store 	misses[2] 	100001
scalar tree_4_3_u03_r7_network.node[2].content_store 	decision_yes[2] 	1152
scalar tree_4_3_u03_r7_network.node[2].content_store 	decision_no[2] 	98847
scalar tree_4_3_u03_r7_network.node[2].content_store 	decision_ratio[2] 	0.011520115201152
scalar tree_4_3_u03_r7_network.node[3].core_layer 	interests[3] 	45448
scalar tree_4_3_u03_r7_network.node[3].core_layer 	data[3] 	42445
scalar tree_4_3_u03_r7_network.node[3].content_store 	p_hit[3] 	0.066031508537229
scalar tree_4_3_u03_r7_network.node[3].content_store 	hits[3] 	3001
scalar tree_4_3_u03_r7_network.node[3].content_store 	misses[3] 	42447
scalar tree_4_3_u03_r7_network.node[3].content_store 	decision_yes[3] 	618
scalar tree_4_3_u03_r7_network.node[3].content_store 	decision_no[3] 	41827
scalar tree_4_3_u03_r7_network.node[3].content_store 	decision_ratio[3] 	0.014560018847921
scalar tree_4_3_u03_r7_network.node[4].core_layer 	interests[4] 	34754
scalar tree_4_3_u03_r7_network.node[4].core_layer 	data[4] 	32913
scalar tree_4_3_u03_r7_network.node[4].content_store 	p_hit[4] 	0.05297231973298
scalar tree_4_3_u03_r7_network.node[4].content_store 	hits[4] 	1841
scalar tree_4_3_u03_r7_network.node[4].content_store 	misses[4] 	32913
scalar tree_4_3_u03_r7_network.node[4].content_store 	decision_yes[4] 	439
scalar tree_4_3_u03_r7_network.node[4].content_store 	decision_no[4] 	32474
scalar tree_4_3_u03_r7_network.node[4].content_store 	decision_ratio[4] 	0.013338194634339
scalar tree_4_3_u03_r7_network.node[5].core_layer 	interests[5] 	18892
scalar tree_4_3_u03_r7_network.node[5].core_layer 	data[5] 	17137
scalar tree_4_3_u03_r7_network.node[5].content_store 	p_hit[5] 	0.092949396569977
scalar tree_4_3_u03_r7_network.node[5].content_store 	hits[5] 	1756
scalar tree_4_3_u03_r7_network.node[5].content_store 	misses[5] 	17136
scalar tree_4_3_u03_r7_network.node[5].content_store 	decision_yes[5] 	228
scalar tree_4_3_u03_r7_network.node[5].content_store 	decision_no[5] 	16909
scalar tree_4_3_u03_r7_network.node[5].content_store 	decision_ratio[5] 	0.013304545719788
scalar tree_4_3_u03_r7_network.node[6].core_layer 	interests[6] 	31097
scalar tree_4_3_u03_r7_network.node[6].core_layer 	data[6] 	27568
scalar tree_4_3_u03_r7_network.node[6].content_store 	p_hit[6] 	0.11345145834003
scalar tree_4_3_u03_r7_network.node[6].content_store 	hits[6] 	3528
scalar tree_4_3_u03_r7_network.node[6].content_store 	misses[6] 	27569
scalar tree_4_3_u03_r7_network.node[6].content_store 	decision_yes[6] 	539
scalar tree_4_3_u03_r7_network.node[6].content_store 	decision_no[6] 	27029
scalar tree_4_3_u03_r7_network.node[6].content_store 	decision_ratio[6] 	0.019551654091701
scalar tree_4_3_u03_r7_network.node[7].core_layer 	interests[7] 	27888
scalar tree_4_3_u03_r7_network.node[7].core_layer 	data[7] 	25654
scalar tree_4_3_u03_r7_network.node[7].content_store 	p_hit[7] 	0.080070281124498
scalar tree_4_3_u03_r7_network.node[7].content_store 	hits[7] 	2233
scalar tree_4_3_u03_r7_network.node[7].content_store 	misses[7] 	25655
scalar tree_4_3_u03_r7_network.node[7].content_store 	decision_yes[7] 	359
scalar tree_4_3_u03_r7_network.node[7].content_store 	decision_no[7] 	25295
scalar tree_4_3_u03_r7_network.node[7].content_store 	decision_ratio[7] 	0.013993919076947
scalar tree_4_3_u03_r7_network.node[8].core_layer 	interests[8] 	28107
scalar tree_4_3_u03_r7_network.node[8].core_layer 	data[8] 	25563
scalar tree_4_3_u03_r7_network.node[8].content_store 	p_hit[8] 	0.090475682214395
scalar tree_4_3_u03_r7_network.node[8].content_store 	hits[8] 	2543
scalar tree_4_3_u03_r7_network.node[8].content_store 	misses[8] 	25564
scalar tree_4_3_u03_r7_network.node[8].content_store 	decision_yes[8] 	412
scalar tree_4_3_u03_r7_network.node[8].content_store 	decision_no[8] 	25151
scalar tree_4_3_u03_r7_network.node[8].content_store 	decision_ratio[8] 	0.016117044165395
scalar tree_4_3_u03_r7_network.node[9].core_layer 	interests[9] 	28760
scalar tree_4_3_u03_r7_network.node[9].core_layer 	data[9] 	26292
scalar tree_4_3_u03_r7_network.node[9].content_store 	p_hit[9] 	0.085813630041725
scalar tree_4_3_u03_r7_network.node[9].content_store 	hits[9] 	2468
scalar tree_4_3_u03_r7_network.node[9].content_store 	misses[9] 	26292
scalar tree_4_3_u03_r7_network.node[9].content_store 	decision_yes[9] 	410
scalar tree_4_3_u03_r7_network.node[9].content_store 	decision_no[9] 	25882
scalar tree_4_3_u03_r7_network.node[9].content_store 	decision_ratio[9] 	0.015594097063746
scalar tree_4_3_u03_r7_network.node[10].core_layer 	interests[10] 	27946
scalar tree_4_3_u03_r7_network.node[10].core_layer 	data[10] 	26039
scalar tree_4_3_u03_r7_network.node[10].content_store 	p_hit[10] 	0.068238746153296
scalar tree_4_3_u03_r7_network.node[10].content_store 	hits[10] 	1907
scalar tree_4_3_u03_r7_network.node[10].content_store 	misses[10] 	26039
scalar tree_4_3_u03_r7_network.node[10].content_store 	decision_yes[10] 	383
scalar tree_4_3_u03_r7_network.node[10].content_store 	decision_no[10] 	25656
scalar tree_4_3_u03_r7_network.node[10].content_store 	decision_ratio[10] 	0.014708706171512
scalar tree_4_3_u03_r7_network.node[11].core_layer 	interests[11] 	38995
scalar tree_4_3_u03_r7_network.node[11].core_layer 	data[11] 	35091
scalar tree_4_3_u03_r7_network.node[11].content_store 	p_hit[11] 	0.10008975509681
scalar tree_4_3_u03_r7_network.node[11].content_store 	hits[11] 	3903
scalar tree_4_3_u03_r7_network.node[11].content_store 	misses[11] 	35092
scalar tree_4_3_u03_r7_network.node[11].content_store 	decision_yes[11] 	618
scalar tree_4_3_u03_r7_network.node[11].content_store 	decision_no[11] 	34473
scalar tree_4_3_u03_r7_network.node[11].content_store 	decision_ratio[11] 	0.017611353338463
scalar tree_4_3_u03_r7_network.node[12].core_layer 	interests[12] 	20109
scalar tree_4_3_u03_r7_network.node[12].core_layer 	data[12] 	17527
scalar tree_4_3_u03_r7_network.node[12].content_store 	p_hit[12] 	0.1284002188075
scalar tree_4_3_u03_r7_network.node[12].content_store 	hits[12] 	2582
scalar tree_4_3_u03_r7_network.node[12].content_store 	misses[12] 	17527
scalar tree_4_3_u03_r7_network.node[12].content_store 	decision_yes[12] 	296
scalar tree_4_3_u03_r7_network.node[12].content_store 	decision_no[12] 	17231
scalar tree_4_3_u03_r7_network.node[12].content_store 	decision_ratio[12] 	0.016888229588635
scalar tree_4_3_u03_r7_network.node[13].core_layer 	interests[13] 	12346
scalar tree_4_3_u03_r7_network.node[13].core_layer 	data[13] 	8855
scalar tree_4_3_u03_r7_network.node[13].content_store 	p_hit[13] 	0.28276364814515
scalar tree_4_3_u03_r7_network.node[13].content_store 	hits[13] 	3491
scalar tree_4_3_u03_r7_network.node[13].content_store 	misses[13] 	8855
scalar tree_4_3_u03_r7_network.node[13].content_store 	decision_yes[13] 	106
scalar tree_4_3_u03_r7_network.node[13].content_store 	decision_no[13] 	8749
scalar tree_4_3_u03_r7_network.node[13].content_store 	decision_ratio[13] 	0.011970638057595
scalar tree_4_3_u03_r7_network.node[14].core_layer 	interests[14] 	12241
scalar tree_4_3_u03_r7_network.node[14].core_layer 	data[14] 	8827
scalar tree_4_3_u03_r7_network.node[14].content_store 	p_hit[14] 	0.27898047545135
scalar tree_4_3_u03_r7_network.node[14].content_store 	hits[14] 	3415
scalar tree_4_3_u03_r7_network.node[14].content_store 	misses[14] 	8826
scalar tree_4_3_u03_r7_network.node[14].content_store 	decision_yes[14] 	103
scalar tree_4_3_u03_r7_network.node[14].content_store 	decision_no[14] 	8724
scalar tree_4_3_u03_r7_network.node[14].content_store 	decision_ratio[14] 	0.011668743627507
scalar tree_4_3_u03_r7_network.node[15].core_layer 	interests[15] 	13206
scalar tree_4_3_u03_r7_network.node[15].core_layer 	data[15] 	8913
scalar tree_4_3_u03_r7_network.node[15].content_store 	p_hit[15] 	0.32507950931395
scalar tree_4_3_u03_r7_network.node[15].content_store 	hits[15] 	4293
scalar tree_4_3_u03_r7_network.node[15].content_store 	misses[15] 	8913
scalar tree_4_3_u03_r7_network.node[15].content_store 	decision_yes[15] 	134
scalar tree_4_3_u03_r7_network.node[15].content_store 	decision_no[15] 	8779
scalar tree_4_3_u03_r7_network.node[15].content_store 	decision_ratio[15] 	0.01503421967912
scalar tree_4_3_u03_r7_network.node[16].core_layer 	interests[16] 	12665
scalar tree_4_3_u03_r7_network.node[16].core_layer 	data[16] 	8772
scalar tree_4_3_u03_r7_network.node[16].content_store 	p_hit[16] 	0.30738255033557
scalar tree_4_3_u03_r7_network.node[16].content_store 	hits[16] 	3893
scalar tree_4_3_u03_r7_network.node[16].content_store 	misses[16] 	8772
scalar tree_4_3_u03_r7_network.node[16].content_store 	decision_yes[16] 	117
scalar tree_4_3_u03_r7_network.node[16].content_store 	decision_no[16] 	8655
scalar tree_4_3_u03_r7_network.node[16].content_store 	decision_ratio[16] 	0.013337893296854
scalar tree_4_3_u03_r7_network.node[17].core_layer 	interests[17] 	11983
scalar tree_4_3_u03_r7_network.node[17].core_layer 	data[17] 	8584
scalar tree_4_3_u03_r7_network.node[17].content_store 	p_hit[17] 	0.28373529166319
scalar tree_4_3_u03_r7_network.node[17].content_store 	hits[17] 	3400
scalar tree_4_3_u03_r7_network.node[17].content_store 	misses[17] 	8583
scalar tree_4_3_u03_r7_network.node[17].content_store 	decision_yes[17] 	104
scalar tree_4_3_u03_r7_network.node[17].content_store 	decision_no[17] 	8480
scalar tree_4_3_u03_r7_network.node[17].content_store 	decision_ratio[17] 	0.012115563839702
scalar tree_4_3_u03_r7_network.node[18].core_layer 	interests[18] 	12249
scalar tree_4_3_u03_r7_network.node[18].core_layer 	data[18] 	8907
scalar tree_4_3_u03_r7_network.node[18].content_store 	p_hit[18] 	0.27283859906931
scalar tree_4_3_u03_r7_network.node[18].content_store 	hits[18] 	3342
scalar tree_4_3_u03_r7_network.node[18].content_store 	misses[18] 	8907
scalar tree_4_3_u03_r7_network.node[18].content_store 	decision_yes[18] 	101
scalar tree_4_3_u03_r7_network.node[18].content_store 	decision_no[18] 	8806
scalar tree_4_3_u03_r7_network.node[18].content_store 	decision_ratio[18] 	0.011339395980689
scalar tree_4_3_u03_r7_network.node[19].core_layer 	interests[19] 	12684
scalar tree_4_3_u03_r7_network.node[19].core_layer 	data[19] 	9014
scalar tree_4_3_u03_r7_network.node[19].content_store 	p_hit[19] 	0.28934090192368
scalar tree_4_3_u03_r7_network.node[19].content_store 	hits[19] 	3670
scalar tree_4_3_u03_r7_network.node[19].content_store 	misses[19] 	9014
scalar tree_4_3_u03_r7_network.node[19].content_store 	decision_yes[19] 	122
scalar tree_4_3_u03_r7_network.node[19].content_store 	decision_no[19] 	8892
scalar tree_4_3_u03_r7_network.node[19].content_store 	decision_ratio[19] 	0.013534501885955
scalar tree_4_3_u03_r7_network.node[20].core_layer 	interests[20] 	12608
scalar tree_4_3_u03_r7_network.node[20].core_layer 	data[20] 	9024
scalar tree_4_3_u03_r7_network.node[20].content_store 	p_hit[20] 	0.28418464467005
scalar tree_4_3_u03_r7_network.node[20].content_store 	hits[20] 	3583
scalar tree_4_3_u03_r7_network.node[20].content_store 	misses[20] 	9025
scalar tree_4_3_u03_r7_network.node[20].content_store 	decision_yes[20] 	105
scalar tree_4_3_u03_r7_network.node[20].content_store 	decision_no[20] 	8919
scalar tree_4_3_u03_r7_network.node[20].content_store 	decision_ratio[20] 	0.011635638297872
scalar tree_4_3_u03_r7_network.node[21].core_layer 	interests[21] 	12844
scalar tree_4_3_u03_r7_network.node[21].core_layer 	data[21] 	9042
scalar tree_4_3_u03_r7_network.node[21].content_store 	p_hit[21] 	0.29601370289629
scalar tree_4_3_u03_r7_network.node[21].content_store 	hits[21] 	3802
scalar tree_4_3_u03_r7_network.node[21].content_store 	misses[21] 	9042
scalar tree_4_3_u03_r7_network.node[21].content_store 	decision_yes[21] 	113
scalar tree_4_3_u03_r7_network.node[21].content_store 	decision_no[21] 	8929
scalar tree_4_3_u03_r7_network.node[21].content_store 	decision_ratio[21] 	0.012497235124972
scalar tree_4_3_u03_r7_network.node[22].core_layer 	interests[22] 	12415
scalar tree_4_3_u03_r7_network.node[22].core_layer 	data[22] 	8877
scalar tree_4_3_u03_r7_network.node[22].content_store 	p_hit[22] 	0.28497784937576
scalar tree_4_3_u03_r7_network.node[22].content_store 	hits[22] 	3538
scalar tree_4_3_u03_r7_network.node[22].content_store 	misses[22] 	8877
scalar tree_4_3_u03_r7_network.node[22].content_store 	decision_yes[22] 	103
scalar tree_4_3_u03_r7_network.node[22].content_store 	decision_no[22] 	8774
scalar tree_4_3_u03_r7_network.node[22].content_store 	decision_ratio[22] 	0.011603019037963
scalar tree_4_3_u03_r7_network.node[23].core_layer 	interests[23] 	13174
scalar tree_4_3_u03_r7_network.node[23].core_layer 	data[23] 	9046
scalar tree_4_3_u03_r7_network.node[23].content_store 	p_hit[23] 	0.31334446637316
scalar tree_4_3_u03_r7_network.node[23].content_store 	hits[23] 	4128
scalar tree_4_3_u03_r7_network.node[23].content_store 	misses[23] 	9046
scalar tree_4_3_u03_r7_network.node[23].content_store 	decision_yes[23] 	138
scalar tree_4_3_u03_r7_network.node[23].content_store 	decision_no[23] 	8908
scalar tree_4_3_u03_r7_network.node[23].content_store 	decision_ratio[23] 	0.01525536148574
scalar tree_4_3_u03_r7_network.node[24].core_layer 	interests[24] 	12330
scalar tree_4_3_u03_r7_network.node[24].core_layer 	data[24] 	8904
scalar tree_4_3_u03_r7_network.node[24].content_store 	p_hit[24] 	0.27785888077859
scalar tree_4_3_u03_r7_network.node[24].content_store 	hits[24] 	3426
scalar tree_4_3_u03_r7_network.node[24].content_store 	misses[24] 	8904
scalar tree_4_3_u03_r7_network.node[24].content_store 	decision_yes[24] 	105
scalar tree_4_3_u03_r7_network.node[24].content_store 	decision_no[24] 	8799
scalar tree_4_3_u03_r7_network.node[24].content_store 	decision_ratio[24] 	0.011792452830189
scalar tree_4_3_u03_r7_network.node[25].core_layer 	interests[25] 	12367
scalar tree_4_3_u03_r7_network.node[25].core_layer 	data[25] 	8787
scalar tree_4_3_u03_r7_network.node[25].content_store 	p_hit[25] 	0.2894800679227
scalar tree_4_3_u03_r7_network.node[25].content_store 	hits[25] 	3580
scalar tree_4_3_u03_r7_network.node[25].content_store 	misses[25] 	8787
scalar tree_4_3_u03_r7_network.node[25].content_store 	decision_yes[25] 	104
scalar tree_4_3_u03_r7_network.node[25].content_store 	decision_no[25] 	8683
scalar tree_4_3_u03_r7_network.node[25].content_store 	decision_ratio[25] 	0.011835666325253
scalar tree_4_3_u03_r7_network.node[26].core_layer 	interests[26] 	12538
scalar tree_4_3_u03_r7_network.node[26].core_layer 	data[26] 	8974
scalar tree_4_3_u03_r7_network.node[26].content_store 	p_hit[26] 	0.28417610464189
scalar tree_4_3_u03_r7_network.node[26].content_store 	hits[26] 	3563
scalar tree_4_3_u03_r7_network.node[26].content_store 	misses[26] 	8975
scalar tree_4_3_u03_r7_network.node[26].content_store 	decision_yes[26] 	131
scalar tree_4_3_u03_r7_network.node[26].content_store 	decision_no[26] 	8843
scalar tree_4_3_u03_r7_network.node[26].content_store 	decision_ratio[26] 	0.014597726766214
scalar tree_4_3_u03_r7_network.node[27].core_layer 	interests[27] 	12893
scalar tree_4_3_u03_r7_network.node[27].core_layer 	data[27] 	8789
scalar tree_4_3_u03_r7_network.node[27].content_store 	p_hit[27] 	0.31831226246801
scalar tree_4_3_u03_r7_network.node[27].content_store 	hits[27] 	4104
scalar tree_4_3_u03_r7_network.node[27].content_store 	misses[27] 	8789
scalar tree_4_3_u03_r7_network.node[27].content_store 	decision_yes[27] 	118
scalar tree_4_3_u03_r7_network.node[27].content_store 	decision_no[27] 	8671
scalar tree_4_3_u03_r7_network.node[27].content_store 	decision_ratio[27] 	0.013425873250654
scalar tree_4_3_u03_r7_network.node[28].core_layer 	interests[28] 	12623
scalar tree_4_3_u03_r7_network.node[28].core_layer 	data[28] 	8982
scalar tree_4_3_u03_r7_network.node[28].content_store 	p_hit[28] 	0.2884417333439
scalar tree_4_3_u03_r7_network.node[28].content_store 	hits[28] 	3641
scalar tree_4_3_u03_r7_network.node[28].content_store 	misses[28] 	8982
scalar tree_4_3_u03_r7_network.node[28].content_store 	decision_yes[28] 	127
scalar tree_4_3_u03_r7_network.node[28].content_store 	decision_no[28] 	8855
scalar tree_4_3_u03_r7_network.node[28].content_store 	decision_ratio[28] 	0.014139389890893
scalar tree_4_3_u03_r7_network.node[29].core_layer 	interests[29] 	12610
scalar tree_4_3_u03_r7_network.node[29].core_layer 	data[29] 	8829
scalar tree_4_3_u03_r7_network.node[29].content_store 	p_hit[29] 	0.29984139571768
scalar tree_4_3_u03_r7_network.node[29].content_store 	hits[29] 	3781
scalar tree_4_3_u03_r7_network.node[29].content_store 	misses[29] 	8829
scalar tree_4_3_u03_r7_network.node[29].content_store 	decision_yes[29] 	106
scalar tree_4_3_u03_r7_network.node[29].content_store 	decision_no[29] 	8723
scalar tree_4_3_u03_r7_network.node[29].content_store 	decision_ratio[29] 	0.012005889681731
scalar tree_4_3_u03_r7_network.node[30].core_layer 	interests[30] 	12478
scalar tree_4_3_u03_r7_network.node[30].core_layer 	data[30] 	8858
scalar tree_4_3_u03_r7_network.node[30].content_store 	p_hit[30] 	0.29011059464658
scalar tree_4_3_u03_r7_network.node[30].content_store 	hits[30] 	3620
scalar tree_4_3_u03_r7_network.node[30].content_store 	misses[30] 	8858
scalar tree_4_3_u03_r7_network.node[30].content_store 	decision_yes[30] 	106
scalar tree_4_3_u03_r7_network.node[30].content_store 	decision_no[30] 	8752
scalar tree_4_3_u03_r7_network.node[30].content_store 	decision_ratio[30] 	0.011966583878979
scalar tree_4_3_u03_r7_network.node[31].core_layer 	interests[31] 	12345
scalar tree_4_3_u03_r7_network.node[31].core_layer 	data[31] 	8765
scalar tree_4_3_u03_r7_network.node[31].content_store 	p_hit[31] 	0.29007695423248
scalar tree_4_3_u03_r7_network.node[31].content_store 	hits[31] 	3581
scalar tree_4_3_u03_r7_network.node[31].content_store 	misses[31] 	8764
scalar tree_4_3_u03_r7_network.node[31].content_store 	decision_yes[31] 	106
scalar tree_4_3_u03_r7_network.node[31].content_store 	decision_no[31] 	8659
scalar tree_4_3_u03_r7_network.node[31].content_store 	decision_ratio[31] 	0.012093553907587
scalar tree_4_3_u03_r7_network.node[32].core_layer 	interests[32] 	12510
scalar tree_4_3_u03_r7_network.node[32].core_layer 	data[32] 	9026
scalar tree_4_3_u03_r7_network.node[32].content_store 	p_hit[32] 	0.27849720223821
scalar tree_4_3_u03_r7_network.node[32].content_store 	hits[32] 	3484
scalar tree_4_3_u03_r7_network.node[32].content_store 	misses[32] 	9026
scalar tree_4_3_u03_r7_network.node[32].content_store 	decision_yes[32] 	108
scalar tree_4_3_u03_r7_network.node[32].content_store 	decision_no[32] 	8918
scalar tree_4_3_u03_r7_network.node[32].content_store 	decision_ratio[32] 	0.011965433192998
scalar tree_4_3_u03_r7_network.node[33].core_layer 	interests[33] 	12486
scalar tree_4_3_u03_r7_network.node[33].core_layer 	data[33] 	8774
scalar tree_4_3_u03_r7_network.node[33].content_store 	p_hit[33] 	0.2972929681243
scalar tree_4_3_u03_r7_network.node[33].content_store 	hits[33] 	3712
scalar tree_4_3_u03_r7_network.node[33].content_store 	misses[33] 	8774
scalar tree_4_3_u03_r7_network.node[33].content_store 	decision_yes[33] 	81
scalar tree_4_3_u03_r7_network.node[33].content_store 	decision_no[33] 	8693
scalar tree_4_3_u03_r7_network.node[33].content_store 	decision_ratio[33] 	0.0092318212901755
scalar tree_4_3_u03_r7_network.node[34].core_layer 	interests[34] 	12817
scalar tree_4_3_u03_r7_network.node[34].core_layer 	data[34] 	9110
scalar tree_4_3_u03_r7_network.node[34].content_store 	p_hit[34] 	0.28922524771787
scalar tree_4_3_u03_r7_network.node[34].content_store 	hits[34] 	3707
scalar tree_4_3_u03_r7_network.node[34].content_store 	misses[34] 	9110
scalar tree_4_3_u03_r7_network.node[34].content_store 	decision_yes[34] 	109
scalar tree_4_3_u03_r7_network.node[34].content_store 	decision_no[34] 	9001
scalar tree_4_3_u03_r7_network.node[34].content_store 	decision_ratio[34] 	0.011964873765093
scalar tree_4_3_u03_r7_network.node[35].core_layer 	interests[35] 	12582
scalar tree_4_3_u03_r7_network.node[35].core_layer 	data[35] 	8991
scalar tree_4_3_u03_r7_network.node[35].content_store 	p_hit[35] 	0.28540772532189
scalar tree_4_3_u03_r7_network.node[35].content_store 	hits[35] 	3591
scalar tree_4_3_u03_r7_network.node[35].content_store 	misses[35] 	8991
scalar tree_4_3_u03_r7_network.node[35].content_store 	decision_yes[35] 	105
scalar tree_4_3_u03_r7_network.node[35].content_store 	decision_no[35] 	8886
scalar tree_4_3_u03_r7_network.node[35].content_store 	decision_ratio[35] 	0.011678345011678
scalar tree_4_3_u03_r7_network.node[36].core_layer 	interests[36] 	13401
scalar tree_4_3_u03_r7_network.node[36].core_layer 	data[36] 	9126
scalar tree_4_3_u03_r7_network.node[36].content_store 	p_hit[36] 	0.31900604432505
scalar tree_4_3_u03_r7_network.node[36].content_store 	hits[36] 	4275
scalar tree_4_3_u03_r7_network.node[36].content_store 	misses[36] 	9126
scalar tree_4_3_u03_r7_network.node[36].content_store 	decision_yes[36] 	150
scalar tree_4_3_u03_r7_network.node[36].content_store 	decision_no[36] 	8976
scalar tree_4_3_u03_r7_network.node[36].content_store 	decision_ratio[36] 	0.016436554898093
scalar tree_4_3_u03_r7_network.node[37].core_layer 	interests[37] 	12474
scalar tree_4_3_u03_r7_network.node[37].core_layer 	data[37] 	8876
scalar tree_4_3_u03_r7_network.node[37].content_store 	p_hit[37] 	0.28843995510662
scalar tree_4_3_u03_r7_network.node[37].content_store 	hits[37] 	3598
scalar tree_4_3_u03_r7_network.node[37].content_store 	misses[37] 	8876
scalar tree_4_3_u03_r7_network.node[37].content_store 	decision_yes[37] 	131
scalar tree_4_3_u03_r7_network.node[37].content_store 	decision_no[37] 	8745
scalar tree_4_3_u03_r7_network.node[37].content_store 	decision_ratio[37] 	0.014758900405588
scalar tree_4_3_u03_r7_network.node[38].core_layer 	interests[38] 	13177
scalar tree_4_3_u03_r7_network.node[38].core_layer 	data[38] 	9069
scalar tree_4_3_u03_r7_network.node[38].content_store 	p_hit[38] 	0.31175533125901
scalar tree_4_3_u03_r7_network.node[38].content_store 	hits[38] 	4108
scalar tree_4_3_u03_r7_network.node[38].content_store 	misses[38] 	9069
scalar tree_4_3_u03_r7_network.node[38].content_store 	decision_yes[38] 	155
scalar tree_4_3_u03_r7_network.node[38].content_store 	decision_no[38] 	8914
scalar tree_4_3_u03_r7_network.node[38].content_store 	decision_ratio[38] 	0.017091189767339
scalar tree_4_3_u03_r7_network.node[39].core_layer 	interests[39] 	12411
scalar tree_4_3_u03_r7_network.node[39].core_layer 	data[39] 	8860
scalar tree_4_3_u03_r7_network.node[39].content_store 	p_hit[39] 	0.28611715413746
scalar tree_4_3_u03_r7_network.node[39].content_store 	hits[39] 	3551
scalar tree_4_3_u03_r7_network.node[39].content_store 	misses[39] 	8860
scalar tree_4_3_u03_r7_network.node[39].content_store 	decision_yes[39] 	126
scalar tree_4_3_u03_r7_network.node[39].content_store 	decision_no[39] 	8734
scalar tree_4_3_u03_r7_network.node[39].content_store 	decision_ratio[39] 	0.014221218961625
scalar tree_4_3_u03_r7_network.client[13] 	hdistance[13] 	2.7508615617383
scalar tree_4_3_u03_r7_network.client[13] 	downloads[13] 	11897
scalar tree_4_3_u03_r7_network.client[13] 	avg_time[13] 	0.004266618879
scalar tree_4_3_u03_r7_network.client[14] 	hdistance[14] 	2.7625917489243
scalar tree_4_3_u03_r7_network.client[14] 	downloads[14] 	11853
scalar tree_4_3_u03_r7_network.client[14] 	avg_time[14] 	0.004277610226
scalar tree_4_3_u03_r7_network.client[15] 	hdistance[15] 	2.6365591397849
scalar tree_4_3_u03_r7_network.client[15] 	downloads[15] 	12090
scalar tree_4_3_u03_r7_network.client[15] 	avg_time[15] 	0.004118276531
scalar tree_4_3_u03_r7_network.client[16] 	hdistance[16] 	2.6911417985854
scalar tree_4_3_u03_r7_network.client[16] 	downloads[16] 	11876
scalar tree_4_3_u03_r7_network.client[16] 	avg_time[16] 	0.004142806022
scalar tree_4_3_u03_r7_network.client[17] 	hdistance[17] 	2.7416980486135
scalar tree_4_3_u03_r7_network.client[17] 	downloads[17] 	11684
scalar tree_4_3_u03_r7_network.client[17] 	avg_time[17] 	0.004249397968
scalar tree_4_3_u03_r7_network.client[18] 	hdistance[18] 	2.7727158948686
scalar tree_4_3_u03_r7_network.client[18] 	downloads[18] 	11985
scalar tree_4_3_u03_r7_network.client[18] 	avg_time[18] 	0.004299704993
scalar tree_4_3_u03_r7_network.client[19] 	hdistance[19] 	2.7078698323095
scalar tree_4_3_u03_r7_network.client[19] 	downloads[19] 	12046
scalar tree_4_3_u03_r7_network.client[19] 	avg_time[19] 	0.004257675917
scalar tree_4_3_u03_r7_network.client[20] 	hdistance[20] 	2.7271056149733
scalar tree_4_3_u03_r7_network.client[20] 	downloads[20] 	11968
scalar tree_4_3_u03_r7_network.client[20] 	avg_time[20] 	0.004281915471
scalar tree_4_3_u03_r7_network.client[21] 	hdistance[21] 	2.6889905259719
scalar tree_4_3_u03_r7_network.client[21] 	downloads[21] 	12244
scalar tree_4_3_u03_r7_network.client[21] 	avg_time[21] 	0.004222799955
scalar tree_4_3_u03_r7_network.client[22] 	hdistance[22] 	2.721657219073
scalar tree_4_3_u03_r7_network.client[22] 	downloads[22] 	11996
scalar tree_4_3_u03_r7_network.client[22] 	avg_time[22] 	0.004259917003
scalar tree_4_3_u03_r7_network.client[23] 	hdistance[23] 	2.6726156365125
scalar tree_4_3_u03_r7_network.client[23] 	downloads[23] 	12215
scalar tree_4_3_u03_r7_network.client[23] 	avg_time[23] 	0.004149991553
scalar tree_4_3_u03_r7_network.client[24] 	hdistance[24] 	2.7549134889971
scalar tree_4_3_u03_r7_network.client[24] 	downloads[24] 	11906
scalar tree_4_3_u03_r7_network.client[24] 	avg_time[24] 	0.004309084864
scalar tree_4_3_u03_r7_network.client[25] 	hdistance[25] 	2.7049772994787
scalar tree_4_3_u03_r7_network.client[25] 	downloads[25] 	11894
scalar tree_4_3_u03_r7_network.client[25] 	avg_time[25] 	0.004225993308
scalar tree_4_3_u03_r7_network.client[26] 	hdistance[26] 	2.7170279662419
scalar tree_4_3_u03_r7_network.client[26] 	downloads[26] 	12086
scalar tree_4_3_u03_r7_network.client[26] 	avg_time[26] 	0.004243419118
scalar tree_4_3_u03_r7_network.client[27] 	hdistance[27] 	2.6761334906456
scalar tree_4_3_u03_r7_network.client[27] 	downloads[27] 	11866
scalar tree_4_3_u03_r7_network.client[27] 	avg_time[27] 	0.004155911955
scalar tree_4_3_u03_r7_network.client[28] 	hdistance[28] 	2.7243547319656
scalar tree_4_3_u03_r7_network.client[28] 	downloads[28] 	12088
scalar tree_4_3_u03_r7_network.client[28] 	avg_time[28] 	0.004247349733
scalar tree_4_3_u03_r7_network.client[29] 	hdistance[29] 	2.693299182021
scalar tree_4_3_u03_r7_network.client[29] 	downloads[29] 	12103
scalar tree_4_3_u03_r7_network.client[29] 	avg_time[29] 	0.004200443149
scalar tree_4_3_u03_r7_network.client[30] 	hdistance[30] 	2.7104671496378
scalar tree_4_3_u03_r7_network.client[30] 	downloads[30] 	12009
scalar tree_4_3_u03_r7_network.client[30] 	avg_time[30] 	0.004236652843
scalar tree_4_3_u03_r7_network.client[31] 	hdistance[31] 	2.7390389632248
scalar tree_4_3_u03_r7_network.client[31] 	downloads[31] 	11883
scalar tree_4_3_u03_r7_network.client[31] 	avg_time[31] 	0.004264408368
scalar tree_4_3_u03_r7_network.client[32] 	hdistance[32] 	2.7485486813734
scalar tree_4_3_u03_r7_network.client[32] 	downloads[32] 	12058
scalar tree_4_3_u03_r7_network.client[32] 	avg_time[32] 	0.004293596473
scalar tree_4_3_u03_r7_network.client[33] 	hdistance[33] 	2.7081809112072
scalar tree_4_3_u03_r7_network.client[33] 	downloads[33] 	12028
scalar tree_4_3_u03_r7_network.client[33] 	avg_time[33] 	0.004215493439
scalar tree_4_3_u03_r7_network.client[34] 	hdistance[34] 	2.6992753623188
scalar tree_4_3_u03_r7_network.client[34] 	downloads[34] 	12144
scalar tree_4_3_u03_r7_network.client[34] 	avg_time[34] 	0.004262019358
scalar tree_4_3_u03_r7_network.client[35] 	hdistance[35] 	2.7117139747132
scalar tree_4_3_u03_r7_network.client[35] 	downloads[35] 	11943
scalar tree_4_3_u03_r7_network.client[35] 	avg_time[35] 	0.004283424018
scalar tree_4_3_u03_r7_network.client[36] 	hdistance[36] 	2.6304578470579
scalar tree_4_3_u03_r7_network.client[36] 	downloads[36] 	12253
scalar tree_4_3_u03_r7_network.client[36] 	avg_time[36] 	0.004133188804
scalar tree_4_3_u03_r7_network.client[37] 	hdistance[37] 	2.6990686845169
scalar tree_4_3_u03_r7_network.client[37] 	downloads[37] 	12026
scalar tree_4_3_u03_r7_network.client[37] 	avg_time[37] 	0.004211704965
scalar tree_4_3_u03_r7_network.client[38] 	hdistance[38] 	2.6610437094898
scalar tree_4_3_u03_r7_network.client[38] 	downloads[38] 	12034
scalar tree_4_3_u03_r7_network.client[38] 	avg_time[38] 	0.004178061183
scalar tree_4_3_u03_r7_network.client[39] 	hdistance[39] 	2.6941618015013
scalar tree_4_3_u03_r7_network.client[39] 	downloads[39] 	11990
scalar tree_4_3_u03_r7_network.client[39] 	avg_time[39] 	0.004205167973
