version 2
run General-72-20160902-13:07:54-7280
attr a 0.9
attr cd wfc0.01
attr configname General
attr cr lru
attr datetime 20160902-13:07:54
attr experiment General
attr fsize 1
attr inifile hw5115/scenario_Y/omnetp.ini
attr iterationvars "$name=tree_4_3, $un=03, $rep=13, $cd=wfc0.01, $cr=lru, $fsize=1, $a=0.9, $sl=nrr, $ttl=1000, $variance=0.05"
attr iterationvars2 "$name=tree_4_3, $un=03, $rep=13, $cd=wfc0.01, $cr=lru, $fsize=1, $a=0.9, $sl=nrr, $ttl=1000, $variance=0.05, $repetition=0"
attr measurement "$name=tree_4_3, $un=03, $rep=13, $cd=wfc0.01, $cr=lru, $fsize=1, $a=0.9, $sl=nrr, $ttl=1000, $variance=0.05"
attr name tree_4_3
attr network networks.${name}_u${un}_r${rep}_network
attr processid 7280
attr rep 13
attr repetition 0
attr replication #0
attr resultdir results
attr runnumber 72
attr seedset 13
attr sl nrr
attr ttl 1000
attr un 03
attr variance 0.05

scalar . 	a 	0.9
scalar . 	fsize 	1
scalar . 	rep 	13
scalar . 	ttl 	1000
scalar . 	un 	03
scalar . 	variance 	0.05
scalar tree_4_3_u03_r13_network.content_distribution 	repo-0 	0
scalar tree_4_3_u03_r13_network.content_distribution 	client-0 	13
scalar tree_4_3_u03_r13_network.content_distribution 	client-1 	14
scalar tree_4_3_u03_r13_network.content_distribution 	client-2 	15
scalar tree_4_3_u03_r13_network.content_distribution 	client-3 	16
scalar tree_4_3_u03_r13_network.content_distribution 	client-4 	17
scalar tree_4_3_u03_r13_network.content_distribution 	client-5 	18
scalar tree_4_3_u03_r13_network.content_distribution 	client-6 	19
scalar tree_4_3_u03_r13_network.content_distribution 	client-7 	20
scalar tree_4_3_u03_r13_network.content_distribution 	client-8 	21
scalar tree_4_3_u03_r13_network.content_distribution 	client-9 	22
scalar tree_4_3_u03_r13_network.content_distribution 	client-10 	23
scalar tree_4_3_u03_r13_network.content_distribution 	client-11 	24
scalar tree_4_3_u03_r13_network.content_distribution 	client-12 	25
scalar tree_4_3_u03_r13_network.content_distribution 	client-13 	26
scalar tree_4_3_u03_r13_network.content_distribution 	client-14 	27
scalar tree_4_3_u03_r13_network.content_distribution 	client-15 	28
scalar tree_4_3_u03_r13_network.content_distribution 	client-16 	29
scalar tree_4_3_u03_r13_network.content_distribution 	client-17 	30
scalar tree_4_3_u03_r13_network.content_distribution 	client-18 	31
scalar tree_4_3_u03_r13_network.content_distribution 	client-19 	32
scalar tree_4_3_u03_r13_network.content_distribution 	client-20 	33
scalar tree_4_3_u03_r13_network.content_distribution 	client-21 	34
scalar tree_4_3_u03_r13_network.content_distribution 	client-22 	35
scalar tree_4_3_u03_r13_network.content_distribution 	client-23 	36
scalar tree_4_3_u03_r13_network.content_distribution 	client-24 	37
scalar tree_4_3_u03_r13_network.content_distribution 	client-25 	38
scalar tree_4_3_u03_r13_network.content_distribution 	client-26 	39
scalar tree_4_3_u03_r13_network.content_distribution 	repo-0_card 	100000
scalar tree_4_3_u03_r13_network.content_distribution 	repo-0_price 	0
scalar tree_4_3_u03_r13_network.statistics 	stabilization_time 	1817.6
scalar tree_4_3_u03_r13_network.statistics 	p_hit 	0.22370426412727
scalar tree_4_3_u03_r13_network.statistics 	interests 	25122.475
scalar tree_4_3_u03_r13_network.statistics 	data 	17036.8
scalar tree_4_3_u03_r13_network.statistics 	hdistance 	2.7095493964765
scalar tree_4_3_u03_r13_network.statistics 	avg_time 	0.004213909396
scalar tree_4_3_u03_r13_network.statistics 	downloads 	323432
scalar tree_4_3_u03_r13_network.statistics 	total_cost 	0
scalar tree_4_3_u03_r13_network.statistics 	total_replicas 	100000
scalar tree_4_3_u03_r13_network.statistics 	inner_hit 	0.39743748299488
scalar tree_4_3_u03_r13_network.node[0].core_layer 	interests[0] 	197279
scalar tree_4_3_u03_r13_network.node[0].core_layer 	repo_load[0] 	194888
scalar tree_4_3_u03_r13_network.node[0].core_layer 	data[0] 	0
scalar tree_4_3_u03_r13_network.node[0].core_layer 	repo_int[0] 	194888
scalar tree_4_3_u03_r13_network.node[0].content_store 	p_hit[0] 	0.012119891118669
scalar tree_4_3_u03_r13_network.node[0].content_store 	hits[0] 	2391
scalar tree_4_3_u03_r13_network.node[0].content_store 	misses[0] 	194888
scalar tree_4_3_u03_r13_network.node[0].content_store 	decision_yes[0] 	3042
scalar tree_4_3_u03_r13_network.node[0].content_store 	decision_no[0] 	191846
scalar tree_4_3_u03_r13_network.node[0].content_store 	decision_ratio[0] 	0.015608965149214
scalar tree_4_3_u03_r13_network.node[1].core_layer 	interests[1] 	71798
scalar tree_4_3_u03_r13_network.node[1].core_layer 	data[1] 	70460
scalar tree_4_3_u03_r13_network.node[1].content_store 	p_hit[1] 	0.018635616590991
scalar tree_4_3_u03_r13_network.node[1].content_store 	hits[1] 	1338
scalar tree_4_3_u03_r13_network.node[1].content_store 	misses[1] 	70460
scalar tree_4_3_u03_r13_network.node[1].content_store 	decision_yes[1] 	858
scalar tree_4_3_u03_r13_network.node[1].content_store 	decision_no[1] 	69602
scalar tree_4_3_u03_r13_network.node[1].content_store 	decision_ratio[1] 	0.012177121771218
scalar tree_4_3_u03_r13_network.node[2].core_layer 	interests[2] 	69269
scalar tree_4_3_u03_r13_network.node[2].core_layer 	data[2] 	68080
scalar tree_4_3_u03_r13_network.node[2].content_store 	p_hit[2] 	0.017164965569014
scalar tree_4_3_u03_r13_network.node[2].content_store 	hits[2] 	1189
scalar tree_4_3_u03_r13_network.node[2].content_store 	misses[2] 	68080
scalar tree_4_3_u03_r13_network.node[2].content_store 	decision_yes[2] 	731
scalar tree_4_3_u03_r13_network.node[2].content_store 	decision_no[2] 	67349
scalar tree_4_3_u03_r13_network.node[2].content_store 	decision_ratio[2] 	0.010737367802585
scalar tree_4_3_u03_r13_network.node[3].core_layer 	interests[3] 	73434
scalar tree_4_3_u03_r13_network.node[3].core_layer 	data[3] 	71226
scalar tree_4_3_u03_r13_network.node[3].content_store 	p_hit[3] 	0.03005419832775
scalar tree_4_3_u03_r13_network.node[3].content_store 	hits[3] 	2207
scalar tree_4_3_u03_r13_network.node[3].content_store 	misses[3] 	71227
scalar tree_4_3_u03_r13_network.node[3].content_store 	decision_yes[3] 	894
scalar tree_4_3_u03_r13_network.node[3].content_store 	decision_no[3] 	70332
scalar tree_4_3_u03_r13_network.node[3].content_store 	decision_ratio[3] 	0.012551596327184
scalar tree_4_3_u03_r13_network.node[4].core_layer 	interests[4] 	36192
scalar tree_4_3_u03_r13_network.node[4].core_layer 	data[4] 	33999
scalar tree_4_3_u03_r13_network.node[4].content_store 	p_hit[4] 	0.06059350132626
scalar tree_4_3_u03_r13_network.node[4].content_store 	hits[4] 	2193
scalar tree_4_3_u03_r13_network.node[4].content_store 	misses[4] 	33999
scalar tree_4_3_u03_r13_network.node[4].content_store 	decision_yes[4] 	507
scalar tree_4_3_u03_r13_network.node[4].content_store 	decision_no[4] 	33492
scalar tree_4_3_u03_r13_network.node[4].content_store 	decision_ratio[4] 	0.014912203300097
scalar tree_4_3_u03_r13_network.node[5].core_layer 	interests[5] 	36196
scalar tree_4_3_u03_r13_network.node[5].core_layer 	data[5] 	33930
scalar tree_4_3_u03_r13_network.node[5].content_store 	p_hit[5] 	0.062631229970162
scalar tree_4_3_u03_r13_network.node[5].content_store 	hits[5] 	2267
scalar tree_4_3_u03_r13_network.node[5].content_store 	misses[5] 	33929
scalar tree_4_3_u03_r13_network.node[5].content_store 	decision_yes[5] 	439
scalar tree_4_3_u03_r13_network.node[5].content_store 	decision_no[5] 	33491
scalar tree_4_3_u03_r13_network.node[5].content_store 	decision_ratio[5] 	0.012938402593575
scalar tree_4_3_u03_r13_network.node[6].core_layer 	interests[6] 	10898
scalar tree_4_3_u03_r13_network.node[6].core_layer 	data[6] 	8909
scalar tree_4_3_u03_r13_network.node[6].content_store 	p_hit[6] 	0.18251055239493
scalar tree_4_3_u03_r13_network.node[6].content_store 	hits[6] 	1989
scalar tree_4_3_u03_r13_network.node[6].content_store 	misses[6] 	8909
scalar tree_4_3_u03_r13_network.node[6].content_store 	decision_yes[6] 	178
scalar tree_4_3_u03_r13_network.node[6].content_store 	decision_no[6] 	8731
scalar tree_4_3_u03_r13_network.node[6].content_store 	decision_ratio[6] 	0.019979795712201
scalar tree_4_3_u03_r13_network.node[7].core_layer 	interests[7] 	34875
scalar tree_4_3_u03_r13_network.node[7].core_layer 	data[7] 	32907
scalar tree_4_3_u03_r13_network.node[7].content_store 	p_hit[7] 	0.056430107526882
scalar tree_4_3_u03_r13_network.node[7].content_store 	hits[7] 	1968
scalar tree_4_3_u03_r13_network.node[7].content_store 	misses[7] 	32907
scalar tree_4_3_u03_r13_network.node[7].content_store 	decision_yes[7] 	447
scalar tree_4_3_u03_r13_network.node[7].content_store 	decision_no[7] 	32460
scalar tree_4_3_u03_r13_network.node[7].content_store 	decision_ratio[7] 	0.013583735983225
scalar tree_4_3_u03_r13_network.node[8].core_layer 	interests[8] 	18999
scalar tree_4_3_u03_r13_network.node[8].core_layer 	data[8] 	17213
scalar tree_4_3_u03_r13_network.node[8].content_store 	p_hit[8] 	0.094004947628823
scalar tree_4_3_u03_r13_network.node[8].content_store 	hits[8] 	1786
scalar tree_4_3_u03_r13_network.node[8].content_store 	misses[8] 	17213
scalar tree_4_3_u03_r13_network.node[8].content_store 	decision_yes[8] 	272
scalar tree_4_3_u03_r13_network.node[8].content_store 	decision_no[8] 	16941
scalar tree_4_3_u03_r13_network.node[8].content_store 	decision_ratio[8] 	0.015802010108639
scalar tree_4_3_u03_r13_network.node[9].core_layer 	interests[9] 	30948
scalar tree_4_3_u03_r13_network.node[9].core_layer 	data[9] 	27682
scalar tree_4_3_u03_r13_network.node[9].content_store 	p_hit[9] 	0.10553185989402
scalar tree_4_3_u03_r13_network.node[9].content_store 	hits[9] 	3266
scalar tree_4_3_u03_r13_network.node[9].content_store 	misses[9] 	27682
scalar tree_4_3_u03_r13_network.node[9].content_store 	decision_yes[9] 	575
scalar tree_4_3_u03_r13_network.node[9].content_store 	decision_no[9] 	27107
scalar tree_4_3_u03_r13_network.node[9].content_store 	decision_ratio[9] 	0.020771620547648
scalar tree_4_3_u03_r13_network.node[10].core_layer 	interests[10] 	36018
scalar tree_4_3_u03_r13_network.node[10].core_layer 	data[10] 	33623
scalar tree_4_3_u03_r13_network.node[10].content_store 	p_hit[10] 	0.066466766616692
scalar tree_4_3_u03_r13_network.node[10].content_store 	hits[10] 	2394
scalar tree_4_3_u03_r13_network.node[10].content_store 	misses[10] 	33624
scalar tree_4_3_u03_r13_network.node[10].content_store 	decision_yes[10] 	468
scalar tree_4_3_u03_r13_network.node[10].content_store 	decision_no[10] 	33155
scalar tree_4_3_u03_r13_network.node[10].content_store 	decision_ratio[10] 	0.013919043511882
scalar tree_4_3_u03_r13_network.node[11].core_layer 	interests[11] 	37415
scalar tree_4_3_u03_r13_network.node[11].core_layer 	data[11] 	34666
scalar tree_4_3_u03_r13_network.node[11].content_store 	p_hit[11] 	0.073526660430309
scalar tree_4_3_u03_r13_network.node[11].content_store 	hits[11] 	2751
scalar tree_4_3_u03_r13_network.node[11].content_store 	misses[11] 	34664
scalar tree_4_3_u03_r13_network.node[11].content_store 	decision_yes[11] 	585
scalar tree_4_3_u03_r13_network.node[11].content_store 	decision_no[11] 	34081
scalar tree_4_3_u03_r13_network.node[11].content_store 	decision_ratio[11] 	0.016875324525472
scalar tree_4_3_u03_r13_network.node[12].core_layer 	interests[12] 	10952
scalar tree_4_3_u03_r13_network.node[12].core_layer 	data[12] 	8768
scalar tree_4_3_u03_r13_network.node[12].content_store 	p_hit[12] 	0.1995069393718
scalar tree_4_3_u03_r13_network.node[12].content_store 	hits[12] 	2185
scalar tree_4_3_u03_r13_network.node[12].content_store 	misses[12] 	8767
scalar tree_4_3_u03_r13_network.node[12].content_store 	decision_yes[12] 	137
scalar tree_4_3_u03_r13_network.node[12].content_store 	decision_no[12] 	8631
scalar tree_4_3_u03_r13_network.node[12].content_store 	decision_ratio[12] 	0.015625
scalar tree_4_3_u03_r13_network.node[13].core_layer 	interests[13] 	12755
scalar tree_4_3_u03_r13_network.node[13].core_layer 	data[13] 	8998
scalar tree_4_3_u03_r13_network.node[13].content_store 	p_hit[13] 	0.29455115640925
scalar tree_4_3_u03_r13_network.node[13].content_store 	hits[13] 	3757
scalar tree_4_3_u03_r13_network.node[13].content_store 	misses[13] 	8998
scalar tree_4_3_u03_r13_network.node[13].content_store 	decision_yes[13] 	123
scalar tree_4_3_u03_r13_network.node[13].content_store 	decision_no[13] 	8875
scalar tree_4_3_u03_r13_network.node[13].content_store 	decision_ratio[13] 	0.013669704378751
scalar tree_4_3_u03_r13_network.node[14].core_layer 	interests[14] 	12487
scalar tree_4_3_u03_r13_network.node[14].core_layer 	data[14] 	8821
scalar tree_4_3_u03_r13_network.node[14].content_store 	p_hit[14] 	0.29358532874189
scalar tree_4_3_u03_r13_network.node[14].content_store 	hits[14] 	3666
scalar tree_4_3_u03_r13_network.node[14].content_store 	misses[14] 	8821
scalar tree_4_3_u03_r13_network.node[14].content_store 	decision_yes[14] 	97
scalar tree_4_3_u03_r13_network.node[14].content_store 	decision_no[14] 	8724
scalar tree_4_3_u03_r13_network.node[14].content_store 	decision_ratio[14] 	0.010996485659222
scalar tree_4_3_u03_r13_network.node[15].core_layer 	interests[15] 	12405
scalar tree_4_3_u03_r13_network.node[15].core_layer 	data[15] 	8829
scalar tree_4_3_u03_r13_network.node[15].content_store 	p_hit[15] 	0.2881902458686
scalar tree_4_3_u03_r13_network.node[15].content_store 	hits[15] 	3575
scalar tree_4_3_u03_r13_network.node[15].content_store 	misses[15] 	8830
scalar tree_4_3_u03_r13_network.node[15].content_store 	decision_yes[15] 	110
scalar tree_4_3_u03_r13_network.node[15].content_store 	decision_no[15] 	8719
scalar tree_4_3_u03_r13_network.node[15].content_store 	decision_ratio[15] 	0.012458942122551
scalar tree_4_3_u03_r13_network.node[16].core_layer 	interests[16] 	12431
scalar tree_4_3_u03_r13_network.node[16].core_layer 	data[16] 	8783
scalar tree_4_3_u03_r13_network.node[16].content_store 	p_hit[16] 	0.29354034269166
scalar tree_4_3_u03_r13_network.node[16].content_store 	hits[16] 	3649
scalar tree_4_3_u03_r13_network.node[16].content_store 	misses[16] 	8782
scalar tree_4_3_u03_r13_network.node[16].content_store 	decision_yes[16] 	122
scalar tree_4_3_u03_r13_network.node[16].content_store 	decision_no[16] 	8661
scalar tree_4_3_u03_r13_network.node[16].content_store 	decision_ratio[16] 	0.013890470226574
scalar tree_4_3_u03_r13_network.node[17].core_layer 	interests[17] 	12658
scalar tree_4_3_u03_r13_network.node[17].core_layer 	data[17] 	8999
scalar tree_4_3_u03_r13_network.node[17].content_store 	p_hit[17] 	0.28914520461368
scalar tree_4_3_u03_r13_network.node[17].content_store 	hits[17] 	3660
scalar tree_4_3_u03_r13_network.node[17].content_store 	misses[17] 	8998
scalar tree_4_3_u03_r13_network.node[17].content_store 	decision_yes[17] 	119
scalar tree_4_3_u03_r13_network.node[17].content_store 	decision_no[17] 	8880
scalar tree_4_3_u03_r13_network.node[17].content_store 	decision_ratio[17] 	0.01322369152128
scalar tree_4_3_u03_r13_network.node[18].core_layer 	interests[18] 	12347
scalar tree_4_3_u03_r13_network.node[18].core_layer 	data[18] 	8737
scalar tree_4_3_u03_r13_network.node[18].content_store 	p_hit[18] 	0.29237871547744
scalar tree_4_3_u03_r13_network.node[18].content_store 	hits[18] 	3610
scalar tree_4_3_u03_r13_network.node[18].content_store 	misses[18] 	8737
scalar tree_4_3_u03_r13_network.node[18].content_store 	decision_yes[18] 	111
scalar tree_4_3_u03_r13_network.node[18].content_store 	decision_no[18] 	8626
scalar tree_4_3_u03_r13_network.node[18].content_store 	decision_ratio[18] 	0.01270458967609
scalar tree_4_3_u03_r13_network.node[19].core_layer 	interests[19] 	12840
scalar tree_4_3_u03_r13_network.node[19].core_layer 	data[19] 	8803
scalar tree_4_3_u03_r13_network.node[19].content_store 	p_hit[19] 	0.31440809968847
scalar tree_4_3_u03_r13_network.node[19].content_store 	hits[19] 	4037
scalar tree_4_3_u03_r13_network.node[19].content_store 	misses[19] 	8803
scalar tree_4_3_u03_r13_network.node[19].content_store 	decision_yes[19] 	143
scalar tree_4_3_u03_r13_network.node[19].content_store 	decision_no[19] 	8660
scalar tree_4_3_u03_r13_network.node[19].content_store 	decision_ratio[19] 	0.016244462115188
scalar tree_4_3_u03_r13_network.node[20].core_layer 	interests[20] 	12813
scalar tree_4_3_u03_r13_network.node[20].core_layer 	data[20] 	8961
scalar tree_4_3_u03_r13_network.node[20].content_store 	p_hit[20] 	0.30063217045188
scalar tree_4_3_u03_r13_network.node[20].content_store 	hits[20] 	3852
scalar tree_4_3_u03_r13_network.node[20].content_store 	misses[20] 	8961
scalar tree_4_3_u03_r13_network.node[20].content_store 	decision_yes[20] 	143
scalar tree_4_3_u03_r13_network.node[20].content_store 	decision_no[20] 	8818
scalar tree_4_3_u03_r13_network.node[20].content_store 	decision_ratio[20] 	0.015958040397277
scalar tree_4_3_u03_r13_network.node[21].core_layer 	interests[21] 	12233
scalar tree_4_3_u03_r13_network.node[21].core_layer 	data[21] 	8881
scalar tree_4_3_u03_r13_network.node[21].content_store 	p_hit[21] 	0.27401291588327
scalar tree_4_3_u03_r13_network.node[21].content_store 	hits[21] 	3352
scalar tree_4_3_u03_r13_network.node[21].content_store 	misses[21] 	8881
scalar tree_4_3_u03_r13_network.node[21].content_store 	decision_yes[21] 	147
scalar tree_4_3_u03_r13_network.node[21].content_store 	decision_no[21] 	8734
scalar tree_4_3_u03_r13_network.node[21].content_store 	decision_ratio[21] 	0.016552190068686
scalar tree_4_3_u03_r13_network.node[22].core_layer 	interests[22] 	12287
scalar tree_4_3_u03_r13_network.node[22].core_layer 	data[22] 	8858
scalar tree_4_3_u03_r13_network.node[22].content_store 	p_hit[22] 	0.2790754455929
scalar tree_4_3_u03_r13_network.node[22].content_store 	hits[22] 	3429
scalar tree_4_3_u03_r13_network.node[22].content_store 	misses[22] 	8858
scalar tree_4_3_u03_r13_network.node[22].content_store 	decision_yes[22] 	118
scalar tree_4_3_u03_r13_network.node[22].content_store 	decision_no[22] 	8740
scalar tree_4_3_u03_r13_network.node[22].content_store 	decision_ratio[22] 	0.013321291487921
scalar tree_4_3_u03_r13_network.node[23].core_layer 	interests[23] 	12665
scalar tree_4_3_u03_r13_network.node[23].core_layer 	data[23] 	8954
scalar tree_4_3_u03_r13_network.node[23].content_store 	p_hit[23] 	0.29301223845243
scalar tree_4_3_u03_r13_network.node[23].content_store 	hits[23] 	3711
scalar tree_4_3_u03_r13_network.node[23].content_store 	misses[23] 	8954
scalar tree_4_3_u03_r13_network.node[23].content_store 	decision_yes[23] 	109
scalar tree_4_3_u03_r13_network.node[23].content_store 	decision_no[23] 	8845
scalar tree_4_3_u03_r13_network.node[23].content_store 	decision_ratio[23] 	0.012173330355149
scalar tree_4_3_u03_r13_network.node[24].core_layer 	interests[24] 	13301
scalar tree_4_3_u03_r13_network.node[24].core_layer 	data[24] 	8912
scalar tree_4_3_u03_r13_network.node[24].content_store 	p_hit[24] 	0.32997518983535
scalar tree_4_3_u03_r13_network.node[24].content_store 	hits[24] 	4389
scalar tree_4_3_u03_r13_network.node[24].content_store 	misses[24] 	8912
scalar tree_4_3_u03_r13_network.node[24].content_store 	decision_yes[24] 	130
scalar tree_4_3_u03_r13_network.node[24].content_store 	decision_no[24] 	8782
scalar tree_4_3_u03_r13_network.node[24].content_store 	decision_ratio[24] 	0.014587073608618
scalar tree_4_3_u03_r13_network.node[25].core_layer 	interests[25] 	12796
scalar tree_4_3_u03_r13_network.node[25].core_layer 	data[25] 	8832
scalar tree_4_3_u03_r13_network.node[25].content_store 	p_hit[25] 	0.30970615817443
scalar tree_4_3_u03_r13_network.node[25].content_store 	hits[25] 	3963
scalar tree_4_3_u03_r13_network.node[25].content_store 	misses[25] 	8833
scalar tree_4_3_u03_r13_network.node[25].content_store 	decision_yes[25] 	144
scalar tree_4_3_u03_r13_network.node[25].content_store 	decision_no[25] 	8688
scalar tree_4_3_u03_r13_network.node[25].content_store 	decision_ratio[25] 	0.016304347826087
scalar tree_4_3_u03_r13_network.node[26].core_layer 	interests[26] 	12260
scalar tree_4_3_u03_r13_network.node[26].core_layer 	data[26] 	8813
scalar tree_4_3_u03_r13_network.node[26].content_store 	p_hit[26] 	0.28115823817292
scalar tree_4_3_u03_r13_network.node[26].content_store 	hits[26] 	3447
scalar tree_4_3_u03_r13_network.node[26].content_store 	misses[26] 	8813
scalar tree_4_3_u03_r13_network.node[26].content_store 	decision_yes[26] 	140
scalar tree_4_3_u03_r13_network.node[26].content_store 	decision_no[26] 	8673
scalar tree_4_3_u03_r13_network.node[26].content_store 	decision_ratio[26] 	0.015885623510723
scalar tree_4_3_u03_r13_network.node[27].core_layer 	interests[27] 	12314
scalar tree_4_3_u03_r13_network.node[27].core_layer 	data[27] 	8803
scalar tree_4_3_u03_r13_network.node[27].content_store 	p_hit[27] 	0.28512262465486
scalar tree_4_3_u03_r13_network.node[27].content_store 	hits[27] 	3511
scalar tree_4_3_u03_r13_network.node[27].content_store 	misses[27] 	8803
scalar tree_4_3_u03_r13_network.node[27].content_store 	decision_yes[27] 	134
scalar tree_4_3_u03_r13_network.node[27].content_store 	decision_no[27] 	8669
scalar tree_4_3_u03_r13_network.node[27].content_store 	decision_ratio[27] 	0.015222083380666
scalar tree_4_3_u03_r13_network.node[28].core_layer 	interests[28] 	12854
scalar tree_4_3_u03_r13_network.node[28].core_layer 	data[28] 	9061
scalar tree_4_3_u03_r13_network.node[28].content_store 	p_hit[28] 	0.29492764898086
scalar tree_4_3_u03_r13_network.node[28].content_store 	hits[28] 	3791
scalar tree_4_3_u03_r13_network.node[28].content_store 	misses[28] 	9063
scalar tree_4_3_u03_r13_network.node[28].content_store 	decision_yes[28] 	122
scalar tree_4_3_u03_r13_network.node[28].content_store 	decision_no[28] 	8939
scalar tree_4_3_u03_r13_network.node[28].content_store 	decision_ratio[28] 	0.013464297538903
scalar tree_4_3_u03_r13_network.node[29].core_layer 	interests[29] 	12719
scalar tree_4_3_u03_r13_network.node[29].core_layer 	data[29] 	9004
scalar tree_4_3_u03_r13_network.node[29].content_store 	p_hit[29] 	0.29208271090495
scalar tree_4_3_u03_r13_network.node[29].content_store 	hits[29] 	3715
scalar tree_4_3_u03_r13_network.node[29].content_store 	misses[29] 	9004
scalar tree_4_3_u03_r13_network.node[29].content_store 	decision_yes[29] 	132
scalar tree_4_3_u03_r13_network.node[29].content_store 	decision_no[29] 	8872
scalar tree_4_3_u03_r13_network.node[29].content_store 	decision_ratio[29] 	0.01466015104398
scalar tree_4_3_u03_r13_network.node[30].core_layer 	interests[30] 	12748
scalar tree_4_3_u03_r13_network.node[30].core_layer 	data[30] 	8903
scalar tree_4_3_u03_r13_network.node[30].content_store 	p_hit[30] 	0.30161593975526
scalar tree_4_3_u03_r13_network.node[30].content_store 	hits[30] 	3845
scalar tree_4_3_u03_r13_network.node[30].content_store 	misses[30] 	8903
scalar tree_4_3_u03_r13_network.node[30].content_store 	decision_yes[30] 	112
scalar tree_4_3_u03_r13_network.node[30].content_store 	decision_no[30] 	8791
scalar tree_4_3_u03_r13_network.node[30].content_store 	decision_ratio[30] 	0.012580029203639
scalar tree_4_3_u03_r13_network.node[31].core_layer 	interests[31] 	12496
scalar tree_4_3_u03_r13_network.node[31].core_layer 	data[31] 	8920
scalar tree_4_3_u03_r13_network.node[31].content_store 	p_hit[31] 	0.28617157490397
scalar tree_4_3_u03_r13_network.node[31].content_store 	hits[31] 	3576
scalar tree_4_3_u03_r13_network.node[31].content_store 	misses[31] 	8920
scalar tree_4_3_u03_r13_network.node[31].content_store 	decision_yes[31] 	120
scalar tree_4_3_u03_r13_network.node[31].content_store 	decision_no[31] 	8800
scalar tree_4_3_u03_r13_network.node[31].content_store 	decision_ratio[31] 	0.013452914798206
scalar tree_4_3_u03_r13_network.node[32].core_layer 	interests[32] 	13124
scalar tree_4_3_u03_r13_network.node[32].core_layer 	data[32] 	8911
scalar tree_4_3_u03_r13_network.node[32].content_store 	p_hit[32] 	0.32093873818958
scalar tree_4_3_u03_r13_network.node[32].content_store 	hits[32] 	4212
scalar tree_4_3_u03_r13_network.node[32].content_store 	misses[32] 	8912
scalar tree_4_3_u03_r13_network.node[32].content_store 	decision_yes[32] 	129
scalar tree_4_3_u03_r13_network.node[32].content_store 	decision_no[32] 	8782
scalar tree_4_3_u03_r13_network.node[32].content_store 	decision_ratio[32] 	0.014476489731792
scalar tree_4_3_u03_r13_network.node[33].core_layer 	interests[33] 	12564
scalar tree_4_3_u03_r13_network.node[33].core_layer 	data[33] 	8903
scalar tree_4_3_u03_r13_network.node[33].content_store 	p_hit[33] 	0.29138809296402
scalar tree_4_3_u03_r13_network.node[33].content_store 	hits[33] 	3661
scalar tree_4_3_u03_r13_network.node[33].content_store 	misses[33] 	8903
scalar tree_4_3_u03_r13_network.node[33].content_store 	decision_yes[33] 	117
scalar tree_4_3_u03_r13_network.node[33].content_store 	decision_no[33] 	8786
scalar tree_4_3_u03_r13_network.node[33].content_store 	decision_ratio[33] 	0.01314163765023
scalar tree_4_3_u03_r13_network.node[34].core_layer 	interests[34] 	12539
scalar tree_4_3_u03_r13_network.node[34].core_layer 	data[34] 	8861
scalar tree_4_3_u03_r13_network.node[34].content_store 	p_hit[34] 	0.29332482654119
scalar tree_4_3_u03_r13_network.node[34].content_store 	hits[34] 	3678
scalar tree_4_3_u03_r13_network.node[34].content_store 	misses[34] 	8861
scalar tree_4_3_u03_r13_network.node[34].content_store 	decision_yes[34] 	101
scalar tree_4_3_u03_r13_network.node[34].content_store 	decision_no[34] 	8760
scalar tree_4_3_u03_r13_network.node[34].content_store 	decision_ratio[34] 	0.011398262047173
scalar tree_4_3_u03_r13_network.node[35].core_layer 	interests[35] 	12557
scalar tree_4_3_u03_r13_network.node[35].core_layer 	data[35] 	8815
scalar tree_4_3_u03_r13_network.node[35].content_store 	p_hit[35] 	0.29808075177192
scalar tree_4_3_u03_r13_network.node[35].content_store 	hits[35] 	3743
scalar tree_4_3_u03_r13_network.node[35].content_store 	misses[35] 	8814
scalar tree_4_3_u03_r13_network.node[35].content_store 	decision_yes[35] 	105
scalar tree_4_3_u03_r13_network.node[35].content_store 	decision_no[35] 	8710
scalar tree_4_3_u03_r13_network.node[35].content_store 	decision_ratio[35] 	0.011911514463982
scalar tree_4_3_u03_r13_network.node[36].core_layer 	interests[36] 	12670
scalar tree_4_3_u03_r13_network.node[36].core_layer 	data[36] 	9023
scalar tree_4_3_u03_r13_network.node[36].content_store 	p_hit[36] 	0.28792423046567
scalar tree_4_3_u03_r13_network.node[36].content_store 	hits[36] 	3648
scalar tree_4_3_u03_r13_network.node[36].content_store 	misses[36] 	9022
scalar tree_4_3_u03_r13_network.node[36].content_store 	decision_yes[36] 	154
scalar tree_4_3_u03_r13_network.node[36].content_store 	decision_no[36] 	8869
scalar tree_4_3_u03_r13_network.node[36].content_store 	decision_ratio[36] 	0.017067494181536
scalar tree_4_3_u03_r13_network.node[37].core_layer 	interests[37] 	12757
scalar tree_4_3_u03_r13_network.node[37].core_layer 	data[37] 	8958
scalar tree_4_3_u03_r13_network.node[37].content_store 	p_hit[37] 	0.2978756760994
scalar tree_4_3_u03_r13_network.node[37].content_store 	hits[37] 	3800
scalar tree_4_3_u03_r13_network.node[37].content_store 	misses[37] 	8957
scalar tree_4_3_u03_r13_network.node[37].content_store 	decision_yes[37] 	156
scalar tree_4_3_u03_r13_network.node[37].content_store 	decision_no[37] 	8802
scalar tree_4_3_u03_r13_network.node[37].content_store 	decision_ratio[37] 	0.017414601473543
scalar tree_4_3_u03_r13_network.node[38].core_layer 	interests[38] 	12862
scalar tree_4_3_u03_r13_network.node[38].core_layer 	data[38] 	8893
scalar tree_4_3_u03_r13_network.node[38].content_store 	p_hit[38] 	0.30858342403981
scalar tree_4_3_u03_r13_network.node[38].content_store 	hits[38] 	3969
scalar tree_4_3_u03_r13_network.node[38].content_store 	misses[38] 	8893
scalar tree_4_3_u03_r13_network.node[38].content_store 	decision_yes[38] 	130
scalar tree_4_3_u03_r13_network.node[38].content_store 	decision_no[38] 	8763
scalar tree_4_3_u03_r13_network.node[38].content_store 	decision_ratio[38] 	0.014618239064433
scalar tree_4_3_u03_r13_network.node[39].core_layer 	interests[39] 	12144
scalar tree_4_3_u03_r13_network.node[39].core_layer 	data[39] 	8773
scalar tree_4_3_u03_r13_network.node[39].content_store 	p_hit[39] 	0.27758563899868
scalar tree_4_3_u03_r13_network.node[39].content_store 	hits[39] 	3371
scalar tree_4_3_u03_r13_network.node[39].content_store 	misses[39] 	8773
scalar tree_4_3_u03_r13_network.node[39].content_store 	decision_yes[39] 	108
scalar tree_4_3_u03_r13_network.node[39].content_store 	decision_no[39] 	8665
scalar tree_4_3_u03_r13_network.node[39].content_store 	decision_ratio[39] 	0.012310498119229
scalar tree_4_3_u03_r13_network.client[13] 	hdistance[13] 	2.7328231712334
scalar tree_4_3_u03_r13_network.client[13] 	downloads[13] 	12153
scalar tree_4_3_u03_r13_network.client[13] 	avg_time[13] 	0.004233025856
scalar tree_4_3_u03_r13_network.client[14] 	hdistance[14] 	2.7042947860962
scalar tree_4_3_u03_r13_network.client[14] 	downloads[14] 	11968
scalar tree_4_3_u03_r13_network.client[14] 	avg_time[14] 	0.004198693514
scalar tree_4_3_u03_r13_network.client[15] 	hdistance[15] 	2.7368597816961
scalar tree_4_3_u03_r13_network.client[15] 	downloads[15] 	11910
scalar tree_4_3_u03_r13_network.client[15] 	avg_time[15] 	0.004242628863
scalar tree_4_3_u03_r13_network.client[16] 	hdistance[16] 	2.7161572052402
scalar tree_4_3_u03_r13_network.client[16] 	downloads[16] 	11908
scalar tree_4_3_u03_r13_network.client[16] 	avg_time[16] 	0.004214405363
scalar tree_4_3_u03_r13_network.client[17] 	hdistance[17] 	2.7226128188358
scalar tree_4_3_u03_r13_network.client[17] 	downloads[17] 	12232
scalar tree_4_3_u03_r13_network.client[17] 	avg_time[17] 	0.004215497263
scalar tree_4_3_u03_r13_network.client[18] 	hdistance[18] 	2.7183027445698
scalar tree_4_3_u03_r13_network.client[18] 	downloads[18] 	11878
scalar tree_4_3_u03_r13_network.client[18] 	avg_time[18] 	0.004213500989
scalar tree_4_3_u03_r13_network.client[19] 	hdistance[19] 	2.6847257383966
scalar tree_4_3_u03_r13_network.client[19] 	downloads[19] 	11850
scalar tree_4_3_u03_r13_network.client[19] 	avg_time[19] 	0.004140925281
scalar tree_4_3_u03_r13_network.client[20] 	hdistance[20] 	2.707381881591
scalar tree_4_3_u03_r13_network.client[20] 	downloads[20] 	12043
scalar tree_4_3_u03_r13_network.client[20] 	avg_time[20] 	0.004167231078
scalar tree_4_3_u03_r13_network.client[21] 	hdistance[21] 	2.7347568604554
scalar tree_4_3_u03_r13_network.client[21] 	downloads[21] 	11989
scalar tree_4_3_u03_r13_network.client[21] 	avg_time[21] 	0.004249044049
scalar tree_4_3_u03_r13_network.client[22] 	hdistance[22] 	2.7523817553326
scalar tree_4_3_u03_r13_network.client[22] 	downloads[22] 	11861
scalar tree_4_3_u03_r13_network.client[22] 	avg_time[22] 	0.004267090884
scalar tree_4_3_u03_r13_network.client[23] 	hdistance[23] 	2.7195993102882
scalar tree_4_3_u03_r13_network.client[23] 	downloads[23] 	12179
scalar tree_4_3_u03_r13_network.client[23] 	avg_time[23] 	0.004213971844
scalar tree_4_3_u03_r13_network.client[24] 	hdistance[24] 	2.6565250188584
scalar tree_4_3_u03_r13_network.client[24] 	downloads[24] 	11931
scalar tree_4_3_u03_r13_network.client[24] 	avg_time[24] 	0.004149691075
scalar tree_4_3_u03_r13_network.client[25] 	hdistance[25] 	2.6836872261544
scalar tree_4_3_u03_r13_network.client[25] 	downloads[25] 	11868
scalar tree_4_3_u03_r13_network.client[25] 	avg_time[25] 	0.004147881612
scalar tree_4_3_u03_r13_network.client[26] 	hdistance[26] 	2.7385093689606
scalar tree_4_3_u03_r13_network.client[26] 	downloads[26] 	11901
scalar tree_4_3_u03_r13_network.client[26] 	avg_time[26] 	0.004251740557
scalar tree_4_3_u03_r13_network.client[27] 	hdistance[27] 	2.7233436636234
scalar tree_4_3_u03_r13_network.client[27] 	downloads[27] 	11939
scalar tree_4_3_u03_r13_network.client[27] 	avg_time[27] 	0.004228156818
scalar tree_4_3_u03_r13_network.client[28] 	hdistance[28] 	2.7007563301546
scalar tree_4_3_u03_r13_network.client[28] 	downloads[28] 	12164
scalar tree_4_3_u03_r13_network.client[28] 	avg_time[28] 	0.004247886154
scalar tree_4_3_u03_r13_network.client[29] 	hdistance[29] 	2.7114838925054
scalar tree_4_3_u03_r13_network.client[29] 	downloads[29] 	11982
scalar tree_4_3_u03_r13_network.client[29] 	avg_time[29] 	0.004266062764
scalar tree_4_3_u03_r13_network.client[30] 	hdistance[30] 	2.6998412300493
scalar tree_4_3_u03_r13_network.client[30] 	downloads[30] 	11967
scalar tree_4_3_u03_r13_network.client[30] 	avg_time[30] 	0.004244168488
scalar tree_4_3_u03_r13_network.client[31] 	hdistance[31] 	2.7237960339943
scalar tree_4_3_u03_r13_network.client[31] 	downloads[31] 	12002
scalar tree_4_3_u03_r13_network.client[31] 	avg_time[31] 	0.00425178835
scalar tree_4_3_u03_r13_network.client[32] 	hdistance[32] 	2.6767625778227
scalar tree_4_3_u03_r13_network.client[32] 	downloads[32] 	11886
scalar tree_4_3_u03_r13_network.client[32] 	avg_time[32] 	0.004150426116
scalar tree_4_3_u03_r13_network.client[33] 	hdistance[33] 	2.7042498550244
scalar tree_4_3_u03_r13_network.client[33] 	downloads[33] 	12071
scalar tree_4_3_u03_r13_network.client[33] 	avg_time[33] 	0.004222513776
scalar tree_4_3_u03_r13_network.client[34] 	hdistance[34] 	2.7188812363514
scalar tree_4_3_u03_r13_network.client[34] 	downloads[34] 	11906
scalar tree_4_3_u03_r13_network.client[34] 	avg_time[34] 	0.004238700195
scalar tree_4_3_u03_r13_network.client[35] 	hdistance[35] 	2.7076317332663
scalar tree_4_3_u03_r13_network.client[35] 	downloads[35] 	11937
scalar tree_4_3_u03_r13_network.client[35] 	avg_time[35] 	0.004215461521
scalar tree_4_3_u03_r13_network.client[36] 	hdistance[36] 	2.7162397413579
scalar tree_4_3_u03_r13_network.client[36] 	downloads[36] 	12063
scalar tree_4_3_u03_r13_network.client[36] 	avg_time[36] 	0.004242225283
scalar tree_4_3_u03_r13_network.client[37] 	hdistance[37] 	2.6817084339356
scalar tree_4_3_u03_r13_network.client[37] 	downloads[37] 	12011
scalar tree_4_3_u03_r13_network.client[37] 	avg_time[37] 	0.00417050738
scalar tree_4_3_u03_r13_network.client[38] 	hdistance[38] 	2.6715653342291
scalar tree_4_3_u03_r13_network.client[38] 	downloads[38] 	11908
scalar tree_4_3_u03_r13_network.client[38] 	avg_time[38] 	0.004152331595
scalar tree_4_3_u03_r13_network.client[39] 	hdistance[39] 	2.7129559748428
scalar tree_4_3_u03_r13_network.client[39] 	downloads[39] 	11925
scalar tree_4_3_u03_r13_network.client[39] 	avg_time[39] 	0.004239997043
