version 2
run General-43-20160822-10:32:38-13100
attr D fix0.05
attr F nrr
attr R lru
attr a 0.7
attr configname General
attr datetime 20160822-10:32:38
attr experiment General
attr inifile hw5115/scenario_B/bus.ini
attr iterationvars "$net=bus, $rep=0, $a=0.7, $F=nrr, $D=fix0.05, $R=lru, $window=60, $variance=0.05, $mytime=600"
attr iterationvars2 "$net=bus, $rep=0, $a=0.7, $F=nrr, $D=fix0.05, $R=lru, $window=60, $variance=0.05, $mytime=600, $repetition=0"
attr measurement "$net=bus, $rep=0, $a=0.7, $F=nrr, $D=fix0.05, $R=lru, $window=60, $variance=0.05, $mytime=600"
attr mytime 600
attr net bus
attr network networks.${net=bus}_network
attr processid 13100
attr rep 0
attr repetition 0
attr replication #0
attr resultdir results
attr runnumber 43
attr seedset 0
attr variance 0.05
attr window 60

scalar . 	a 	0.7
scalar . 	mytime 	600
scalar . 	rep 	0
scalar . 	variance 	0.05
scalar . 	window 	60
scalar bus_network.content_distribution 	repo-0 	9
scalar bus_network.content_distribution 	client-0 	5
scalar bus_network.content_distribution 	client-1 	8
scalar bus_network.content_distribution 	client-2 	9
scalar bus_network.content_distribution 	client-3 	0
scalar bus_network.content_distribution 	client-4 	1
scalar bus_network.content_distribution 	client-5 	7
scalar bus_network.content_distribution 	client-6 	6
scalar bus_network.content_distribution 	client-7 	2
scalar bus_network.content_distribution 	client-8 	4
scalar bus_network.content_distribution 	client-9 	3
scalar bus_network.content_distribution 	repo-0_card 	100000
scalar bus_network.content_distribution 	repo-0_price 	0
scalar bus_network.statistics 	stabilization_time 	582.4
scalar bus_network.statistics 	p_hit 	0.032311453702679
scalar bus_network.statistics 	interests 	61514.8
scalar bus_network.statistics 	data 	49506.4
scalar bus_network.statistics 	hdistance 	5.0289203757189
scalar bus_network.statistics 	avg_time 	0.008253927434
scalar bus_network.statistics 	downloads 	120082
scalar bus_network.statistics 	total_cost 	0
scalar bus_network.statistics 	total_replicas 	100000
scalar bus_network.statistics 	inner_hit 	0.098149597774854
scalar bus_network.node[0].core_layer 	interests[0] 	12651
scalar bus_network.node[0].core_layer 	data[0] 	11342
scalar bus_network.node[0].core_layer 	repo_int[0] 	108296
scalar bus_network.node[0].content_store 	p_hit[0] 	0.10347008141649
scalar bus_network.node[0].content_store 	hits[0] 	1309
scalar bus_network.node[0].content_store 	misses[0] 	11342
scalar bus_network.node[0].content_store 	decision_yes[0] 	586
scalar bus_network.node[0].content_store 	decision_no[0] 	10756
scalar bus_network.node[0].content_store 	decision_ratio[0] 	0.051666372773761
scalar bus_network.node[1].core_layer 	interests[1] 	24629
scalar bus_network.node[1].core_layer 	data[1] 	23031
scalar bus_network.node[1].content_store 	p_hit[1] 	0.064923464208859
scalar bus_network.node[1].content_store 	hits[1] 	1599
scalar bus_network.node[1].content_store 	misses[1] 	23030
scalar bus_network.node[1].content_store 	decision_yes[1] 	1162
scalar bus_network.node[1].content_store 	decision_no[1] 	21869
scalar bus_network.node[1].content_store 	decision_ratio[1] 	0.050453736268508
scalar bus_network.node[2].core_layer 	interests[2] 	35739
scalar bus_network.node[2].core_layer 	data[2] 	33967
scalar bus_network.node[2].content_store 	p_hit[2] 	0.049553708833487
scalar bus_network.node[2].content_store 	hits[2] 	1771
scalar bus_network.node[2].content_store 	misses[2] 	33968
scalar bus_network.node[2].content_store 	decision_yes[2] 	1675
scalar bus_network.node[2].content_store 	decision_no[2] 	32292
scalar bus_network.node[2].content_store 	decision_ratio[2] 	0.049312568080784
scalar bus_network.node[3].core_layer 	interests[3] 	46416
scalar bus_network.node[3].core_layer 	data[3] 	45035
scalar bus_network.node[3].content_store 	p_hit[3] 	0.029709582902447
scalar bus_network.node[3].content_store 	hits[3] 	1379
scalar bus_network.node[3].content_store 	misses[3] 	45037
scalar bus_network.node[3].content_store 	decision_yes[3] 	2264
scalar bus_network.node[3].content_store 	decision_no[3] 	42771
scalar bus_network.node[3].content_store 	decision_ratio[3] 	0.050272010658377
scalar bus_network.node[4].core_layer 	interests[4] 	56715
scalar bus_network.node[4].core_layer 	data[4] 	55608
scalar bus_network.node[4].content_store 	p_hit[4] 	0.019483381821388
scalar bus_network.node[4].content_store 	hits[4] 	1105
scalar bus_network.node[4].content_store 	misses[4] 	55610
scalar bus_network.node[4].content_store 	decision_yes[4] 	2848
scalar bus_network.node[4].content_store 	decision_no[4] 	52760
scalar bus_network.node[4].content_store 	decision_ratio[4] 	0.051215652424112
scalar bus_network.node[5].core_layer 	interests[5] 	66976
scalar bus_network.node[5].core_layer 	data[5] 	65717
scalar bus_network.node[5].content_store 	p_hit[5] 	0.01875298614429
scalar bus_network.node[5].content_store 	hits[5] 	1256
scalar bus_network.node[5].content_store 	misses[5] 	65720
scalar bus_network.node[5].content_store 	decision_yes[5] 	3163
scalar bus_network.node[5].content_store 	decision_no[5] 	62554
scalar bus_network.node[5].content_store 	decision_ratio[5] 	0.048130620691754
scalar bus_network.node[6].core_layer 	interests[6] 	77227
scalar bus_network.node[6].core_layer 	data[6] 	76246
scalar bus_network.node[6].content_store 	p_hit[6] 	0.012702811192977
scalar bus_network.node[6].content_store 	hits[6] 	981
scalar bus_network.node[6].content_store 	misses[6] 	76246
scalar bus_network.node[6].content_store 	decision_yes[6] 	3776
scalar bus_network.node[6].content_store 	decision_no[6] 	72470
scalar bus_network.node[6].content_store 	decision_ratio[6] 	0.049523909450988
scalar bus_network.node[7].core_layer 	interests[7] 	87596
scalar bus_network.node[7].core_layer 	data[7] 	86734
scalar bus_network.node[7].content_store 	p_hit[7] 	0.0098292159459336
scalar bus_network.node[7].content_store 	hits[7] 	861
scalar bus_network.node[7].content_store 	misses[7] 	86735
scalar bus_network.node[7].content_store 	decision_yes[7] 	4256
scalar bus_network.node[7].content_store 	decision_no[7] 	82478
scalar bus_network.node[7].content_store 	decision_ratio[7] 	0.04906956902714
scalar bus_network.node[8].core_layer 	interests[8] 	98140
scalar bus_network.node[8].core_layer 	data[8] 	97384
scalar bus_network.node[8].content_store 	p_hit[8] 	0.007693091501936
scalar bus_network.node[8].content_store 	hits[8] 	755
scalar bus_network.node[8].content_store 	misses[8] 	97385
scalar bus_network.node[8].content_store 	decision_yes[8] 	4891
scalar bus_network.node[8].content_store 	decision_no[8] 	92493
scalar bus_network.node[8].content_store 	decision_ratio[8] 	0.05022385607492
scalar bus_network.node[9].core_layer 	interests[9] 	109059
scalar bus_network.node[9].core_layer 	repo_load[9] 	108296
scalar bus_network.node[9].core_layer 	data[9] 	0
scalar bus_network.node[9].content_store 	p_hit[9] 	0.0069962130589864
scalar bus_network.node[9].content_store 	hits[9] 	763
scalar bus_network.node[9].content_store 	misses[9] 	108296
scalar bus_network.node[9].content_store 	decision_yes[9] 	5312
scalar bus_network.node[9].content_store 	decision_no[9] 	102984
scalar bus_network.node[9].content_store 	decision_ratio[9] 	0.049050749796853
scalar bus_network.client[0] 	hdistance[0] 	9.0236602290779
scalar bus_network.client[0] 	downloads[0] 	11961
scalar bus_network.client[0] 	avg_time[0] 	0.016291352836
scalar bus_network.client[1] 	hdistance[1] 	8.0801451187335
scalar bus_network.client[1] 	downloads[1] 	12128
scalar bus_network.client[1] 	avg_time[1] 	0.014407539751
scalar bus_network.client[2] 	hdistance[2] 	7.1816103632207
scalar bus_network.client[2] 	downloads[2] 	11811
scalar bus_network.client[2] 	avg_time[2] 	0.012614487146
scalar bus_network.client[3] 	hdistance[3] 	6.3032923179248
scalar bus_network.client[3] 	downloads[3] 	12028
scalar bus_network.client[3] 	avg_time[3] 	0.010859585989
scalar bus_network.client[4] 	hdistance[4] 	5.4854417670683
scalar bus_network.client[4] 	downloads[4] 	11952
scalar bus_network.client[4] 	avg_time[4] 	0.009207335357
scalar bus_network.client[5] 	hdistance[5] 	4.6306623126517
scalar bus_network.client[5] 	downloads[5] 	11943
scalar bus_network.client[5] 	avg_time[5] 	0.007502777054
scalar bus_network.client[6] 	hdistance[6] 	3.7839167144848
scalar bus_network.client[6] 	downloads[6] 	12199
scalar bus_network.client[6] 	avg_time[6] 	0.005763092278
scalar bus_network.client[7] 	hdistance[7] 	2.875923313138
scalar bus_network.client[7] 	downloads[7] 	12049
scalar bus_network.client[7] 	avg_time[7] 	0.003902249976
scalar bus_network.client[8] 	hdistance[8] 	1.9386584656305
scalar bus_network.client[8] 	downloads[8] 	12031
scalar bus_network.client[8] 	avg_time[8] 	0.00199085396
scalar bus_network.client[9] 	hdistance[9] 	0.98589315525876
scalar bus_network.client[9] 	downloads[9] 	11980
scalar bus_network.client[9] 	avg_time[9] 	0
