version 2
run General-149-20160819-23:56:01-9589
attr a 0.9
attr cd fix0.01
attr configname General
attr cr lru
attr datetime 20160819-23:56:01
attr experiment General
attr fsize 1
attr inifile hw5115/scenario_A/SPR-FIX0.01.ini
attr iterationvars "$name=tree_4_3, $un=07, $rep=10, $cd=fix0.01, $cr=lru, $fsize=1, $a=0.9, $sl=spr, $ttl=1000, $variance=0.05"
attr iterationvars2 "$name=tree_4_3, $un=07, $rep=10, $cd=fix0.01, $cr=lru, $fsize=1, $a=0.9, $sl=spr, $ttl=1000, $variance=0.05, $repetition=0"
attr measurement "$name=tree_4_3, $un=07, $rep=10, $cd=fix0.01, $cr=lru, $fsize=1, $a=0.9, $sl=spr, $ttl=1000, $variance=0.05"
attr name tree_4_3
attr network networks.${name}_u${un}_r${rep}_network
attr processid 9589
attr rep 10
attr repetition 0
attr replication #0
attr resultdir results
attr runnumber 149
attr seedset 10
attr sl spr
attr ttl 1000
attr un 07
attr variance 0.05

scalar . 	a 	0.9
scalar . 	fsize 	1
scalar . 	rep 	10
scalar . 	ttl 	1000
scalar . 	un 	07
scalar . 	variance 	0.05
scalar tree_4_3_u07_r10_network.content_distribution 	repo-0 	0
scalar tree_4_3_u07_r10_network.content_distribution 	client-0 	13
scalar tree_4_3_u07_r10_network.content_distribution 	client-1 	14
scalar tree_4_3_u07_r10_network.content_distribution 	client-2 	15
scalar tree_4_3_u07_r10_network.content_distribution 	client-3 	16
scalar tree_4_3_u07_r10_network.content_distribution 	client-4 	17
scalar tree_4_3_u07_r10_network.content_distribution 	client-5 	18
scalar tree_4_3_u07_r10_network.content_distribution 	client-6 	19
scalar tree_4_3_u07_r10_network.content_distribution 	client-7 	20
scalar tree_4_3_u07_r10_network.content_distribution 	client-8 	21
scalar tree_4_3_u07_r10_network.content_distribution 	client-9 	22
scalar tree_4_3_u07_r10_network.content_distribution 	client-10 	23
scalar tree_4_3_u07_r10_network.content_distribution 	client-11 	24
scalar tree_4_3_u07_r10_network.content_distribution 	client-12 	25
scalar tree_4_3_u07_r10_network.content_distribution 	client-13 	26
scalar tree_4_3_u07_r10_network.content_distribution 	client-14 	27
scalar tree_4_3_u07_r10_network.content_distribution 	client-15 	28
scalar tree_4_3_u07_r10_network.content_distribution 	client-16 	29
scalar tree_4_3_u07_r10_network.content_distribution 	client-17 	30
scalar tree_4_3_u07_r10_network.content_distribution 	client-18 	31
scalar tree_4_3_u07_r10_network.content_distribution 	client-19 	32
scalar tree_4_3_u07_r10_network.content_distribution 	client-20 	33
scalar tree_4_3_u07_r10_network.content_distribution 	client-21 	34
scalar tree_4_3_u07_r10_network.content_distribution 	client-22 	35
scalar tree_4_3_u07_r10_network.content_distribution 	client-23 	36
scalar tree_4_3_u07_r10_network.content_distribution 	client-24 	37
scalar tree_4_3_u07_r10_network.content_distribution 	client-25 	38
scalar tree_4_3_u07_r10_network.content_distribution 	client-26 	39
scalar tree_4_3_u07_r10_network.content_distribution 	repo-0_card 	100000
scalar tree_4_3_u07_r10_network.content_distribution 	repo-0_price 	0
scalar tree_4_3_u07_r10_network.statistics 	stabilization_time 	2619.1
scalar tree_4_3_u07_r10_network.statistics 	p_hit 	0.17875558716501
scalar tree_4_3_u07_r10_network.statistics 	interests 	25649.775
scalar tree_4_3_u07_r10_network.statistics 	data 	17558.65
scalar tree_4_3_u07_r10_network.statistics 	hdistance 	2.8527350798594
scalar tree_4_3_u07_r10_network.statistics 	avg_time 	0.004340319563
scalar tree_4_3_u07_r10_network.statistics 	downloads 	323639
scalar tree_4_3_u07_r10_network.statistics 	total_cost 	0
scalar tree_4_3_u07_r10_network.statistics 	total_replicas 	100000
scalar tree_4_3_u07_r10_network.statistics 	inner_hit 	0.31750190799008
scalar tree_4_3_u07_r10_network.node[0].core_layer 	interests[0] 	225619
scalar tree_4_3_u07_r10_network.node[0].core_layer 	repo_load[0] 	220883
scalar tree_4_3_u07_r10_network.node[0].core_layer 	data[0] 	0
scalar tree_4_3_u07_r10_network.node[0].core_layer 	repo_int[0] 	220883
scalar tree_4_3_u07_r10_network.node[0].content_store 	p_hit[0] 	0.020991139930591
scalar tree_4_3_u07_r10_network.node[0].content_store 	hits[0] 	4736
scalar tree_4_3_u07_r10_network.node[0].content_store 	misses[0] 	220883
scalar tree_4_3_u07_r10_network.node[0].content_store 	decision_yes[0] 	2205
scalar tree_4_3_u07_r10_network.node[0].content_store 	decision_no[0] 	218678
scalar tree_4_3_u07_r10_network.node[0].content_store 	decision_ratio[0] 	0.0099826605035245
scalar tree_4_3_u07_r10_network.node[1].core_layer 	interests[1] 	112239
scalar tree_4_3_u07_r10_network.node[1].core_layer 	data[1] 	109294
scalar tree_4_3_u07_r10_network.node[1].content_store 	p_hit[1] 	0.026220832331008
scalar tree_4_3_u07_r10_network.node[1].content_store 	hits[1] 	2943
scalar tree_4_3_u07_r10_network.node[1].content_store 	misses[1] 	109296
scalar tree_4_3_u07_r10_network.node[1].content_store 	decision_yes[1] 	1159
scalar tree_4_3_u07_r10_network.node[1].content_store 	decision_no[1] 	108135
scalar tree_4_3_u07_r10_network.node[1].content_store 	decision_ratio[1] 	0.010604424762567
scalar tree_4_3_u07_r10_network.node[2].core_layer 	interests[2] 	42585
scalar tree_4_3_u07_r10_network.node[2].core_layer 	data[2] 	41342
scalar tree_4_3_u07_r10_network.node[2].content_store 	p_hit[2] 	0.029188681460608
scalar tree_4_3_u07_r10_network.node[2].content_store 	hits[2] 	1243
scalar tree_4_3_u07_r10_network.node[2].content_store 	misses[2] 	41342
scalar tree_4_3_u07_r10_network.node[2].content_store 	decision_yes[2] 	406
scalar tree_4_3_u07_r10_network.node[2].content_store 	decision_no[2] 	40936
scalar tree_4_3_u07_r10_network.node[2].content_store 	decision_ratio[2] 	0.0098205215035557
scalar tree_4_3_u07_r10_network.node[3].core_layer 	interests[3] 	77063
scalar tree_4_3_u07_r10_network.node[3].core_layer 	data[3] 	74982
scalar tree_4_3_u07_r10_network.node[3].content_store 	p_hit[3] 	0.026977927150513
scalar tree_4_3_u07_r10_network.node[3].content_store 	hits[3] 	2079
scalar tree_4_3_u07_r10_network.node[3].content_store 	misses[3] 	74984
scalar tree_4_3_u07_r10_network.node[3].content_store 	decision_yes[3] 	769
scalar tree_4_3_u07_r10_network.node[3].content_store 	decision_no[3] 	74213
scalar tree_4_3_u07_r10_network.node[3].content_store 	decision_ratio[3] 	0.010255794724067
scalar tree_4_3_u07_r10_network.node[4].core_layer 	interests[4] 	45262
scalar tree_4_3_u07_r10_network.node[4].core_layer 	data[4] 	42934
scalar tree_4_3_u07_r10_network.node[4].content_store 	p_hit[4] 	0.051455967478238
scalar tree_4_3_u07_r10_network.node[4].content_store 	hits[4] 	2329
scalar tree_4_3_u07_r10_network.node[4].content_store 	misses[4] 	42933
scalar tree_4_3_u07_r10_network.node[4].content_store 	decision_yes[4] 	413
scalar tree_4_3_u07_r10_network.node[4].content_store 	decision_no[4] 	42521
scalar tree_4_3_u07_r10_network.node[4].content_store 	decision_ratio[4] 	0.00961941584758
scalar tree_4_3_u07_r10_network.node[5].core_layer 	interests[5] 	27526
scalar tree_4_3_u07_r10_network.node[5].core_layer 	data[5] 	26085
scalar tree_4_3_u07_r10_network.node[5].content_store 	p_hit[5] 	0.052350504977113
scalar tree_4_3_u07_r10_network.node[5].content_store 	hits[5] 	1441
scalar tree_4_3_u07_r10_network.node[5].content_store 	misses[5] 	26085
scalar tree_4_3_u07_r10_network.node[5].content_store 	decision_yes[5] 	259
scalar tree_4_3_u07_r10_network.node[5].content_store 	decision_no[5] 	25826
scalar tree_4_3_u07_r10_network.node[5].content_store 	decision_ratio[5] 	0.0099290780141844
scalar tree_4_3_u07_r10_network.node[6].core_layer 	interests[6] 	9078
scalar tree_4_3_u07_r10_network.node[6].core_layer 	data[6] 	8661
scalar tree_4_3_u07_r10_network.node[6].content_store 	p_hit[6] 	0.045935228023794
scalar tree_4_3_u07_r10_network.node[6].content_store 	hits[6] 	417
scalar tree_4_3_u07_r10_network.node[6].content_store 	misses[6] 	8661
scalar tree_4_3_u07_r10_network.node[6].content_store 	decision_yes[6] 	81
scalar tree_4_3_u07_r10_network.node[6].content_store 	decision_no[6] 	8580
scalar tree_4_3_u07_r10_network.node[6].content_store 	decision_ratio[6] 	0.0093522687911327
scalar tree_4_3_u07_r10_network.node[7].core_layer 	interests[7] 	36425
scalar tree_4_3_u07_r10_network.node[7].core_layer 	data[7] 	34561
scalar tree_4_3_u07_r10_network.node[7].content_store 	p_hit[7] 	0.051173644474949
scalar tree_4_3_u07_r10_network.node[7].content_store 	hits[7] 	1864
scalar tree_4_3_u07_r10_network.node[7].content_store 	misses[7] 	34561
scalar tree_4_3_u07_r10_network.node[7].content_store 	decision_yes[7] 	361
scalar tree_4_3_u07_r10_network.node[7].content_store 	decision_no[7] 	34200
scalar tree_4_3_u07_r10_network.node[7].content_store 	decision_ratio[7] 	0.010445299615173
scalar tree_4_3_u07_r10_network.node[8].core_layer 	interests[8] 	27102
scalar tree_4_3_u07_r10_network.node[8].core_layer 	data[8] 	25545
scalar tree_4_3_u07_r10_network.node[8].content_store 	p_hit[8] 	0.057449634713305
scalar tree_4_3_u07_r10_network.node[8].content_store 	hits[8] 	1557
scalar tree_4_3_u07_r10_network.node[8].content_store 	misses[8] 	25545
scalar tree_4_3_u07_r10_network.node[8].content_store 	decision_yes[8] 	248
scalar tree_4_3_u07_r10_network.node[8].content_store 	decision_no[8] 	25297
scalar tree_4_3_u07_r10_network.node[8].content_store 	decision_ratio[8] 	0.0097083577999609
scalar tree_4_3_u07_r10_network.node[9].core_layer 	interests[9] 	17892
scalar tree_4_3_u07_r10_network.node[9].core_layer 	data[9] 	17040
scalar tree_4_3_u07_r10_network.node[9].content_store 	p_hit[9] 	0.047619047619048
scalar tree_4_3_u07_r10_network.node[9].content_store 	hits[9] 	852
scalar tree_4_3_u07_r10_network.node[9].content_store 	misses[9] 	17040
scalar tree_4_3_u07_r10_network.node[9].content_store 	decision_yes[9] 	183
scalar tree_4_3_u07_r10_network.node[9].content_store 	decision_no[9] 	16857
scalar tree_4_3_u07_r10_network.node[9].content_store 	decision_ratio[9] 	0.010739436619718
scalar tree_4_3_u07_r10_network.node[10].core_layer 	interests[10] 	27216
scalar tree_4_3_u07_r10_network.node[10].core_layer 	data[10] 	25613
scalar tree_4_3_u07_r10_network.node[10].content_store 	p_hit[10] 	0.058899176954733
scalar tree_4_3_u07_r10_network.node[10].content_store 	hits[10] 	1603
scalar tree_4_3_u07_r10_network.node[10].content_store 	misses[10] 	25613
scalar tree_4_3_u07_r10_network.node[10].content_store 	decision_yes[10] 	256
scalar tree_4_3_u07_r10_network.node[10].content_store 	decision_no[10] 	25357
scalar tree_4_3_u07_r10_network.node[10].content_store 	decision_ratio[10] 	0.0099949244524265
scalar tree_4_3_u07_r10_network.node[11].core_layer 	interests[11] 	36298
scalar tree_4_3_u07_r10_network.node[11].core_layer 	data[11] 	34450
scalar tree_4_3_u07_r10_network.node[11].content_store 	p_hit[11] 	0.050856796517714
scalar tree_4_3_u07_r10_network.node[11].content_store 	hits[11] 	1846
scalar tree_4_3_u07_r10_network.node[11].content_store 	misses[11] 	34452
scalar tree_4_3_u07_r10_network.node[11].content_store 	decision_yes[11] 	355
scalar tree_4_3_u07_r10_network.node[11].content_store 	decision_no[11] 	34095
scalar tree_4_3_u07_r10_network.node[11].content_store 	decision_ratio[11] 	0.010304789550073
scalar tree_4_3_u07_r10_network.node[12].core_layer 	interests[12] 	18040
scalar tree_4_3_u07_r10_network.node[12].core_layer 	data[12] 	16999
scalar tree_4_3_u07_r10_network.node[12].content_store 	p_hit[12] 	0.057705099778271
scalar tree_4_3_u07_r10_network.node[12].content_store 	hits[12] 	1041
scalar tree_4_3_u07_r10_network.node[12].content_store 	misses[12] 	16999
scalar tree_4_3_u07_r10_network.node[12].content_store 	decision_yes[12] 	149
scalar tree_4_3_u07_r10_network.node[12].content_store 	decision_no[12] 	16850
scalar tree_4_3_u07_r10_network.node[12].content_store 	decision_ratio[12] 	0.0087652214836167
scalar tree_4_3_u07_r10_network.node[13].core_layer 	interests[13] 	11931
scalar tree_4_3_u07_r10_network.node[13].core_layer 	data[13] 	9131
scalar tree_4_3_u07_r10_network.node[13].content_store 	p_hit[13] 	0.23468275919873
scalar tree_4_3_u07_r10_network.node[13].content_store 	hits[13] 	2800
scalar tree_4_3_u07_r10_network.node[13].content_store 	misses[13] 	9131
scalar tree_4_3_u07_r10_network.node[13].content_store 	decision_yes[13] 	99
scalar tree_4_3_u07_r10_network.node[13].content_store 	decision_no[13] 	9032
scalar tree_4_3_u07_r10_network.node[13].content_store 	decision_ratio[13] 	0.010842185959917
scalar tree_4_3_u07_r10_network.node[14].core_layer 	interests[14] 	11625
scalar tree_4_3_u07_r10_network.node[14].core_layer 	data[14] 	8847
scalar tree_4_3_u07_r10_network.node[14].content_store 	p_hit[14] 	0.23888172043011
scalar tree_4_3_u07_r10_network.node[14].content_store 	hits[14] 	2777
scalar tree_4_3_u07_r10_network.node[14].content_store 	misses[14] 	8848
scalar tree_4_3_u07_r10_network.node[14].content_store 	decision_yes[14] 	91
scalar tree_4_3_u07_r10_network.node[14].content_store 	decision_no[14] 	8756
scalar tree_4_3_u07_r10_network.node[14].content_store 	decision_ratio[14] 	0.010285972646095
scalar tree_4_3_u07_r10_network.node[15].core_layer 	interests[15] 	12164
scalar tree_4_3_u07_r10_network.node[15].core_layer 	data[15] 	9214
scalar tree_4_3_u07_r10_network.node[15].content_store 	p_hit[15] 	0.24251890825386
scalar tree_4_3_u07_r10_network.node[15].content_store 	hits[15] 	2950
scalar tree_4_3_u07_r10_network.node[15].content_store 	misses[15] 	9214
scalar tree_4_3_u07_r10_network.node[15].content_store 	decision_yes[15] 	104
scalar tree_4_3_u07_r10_network.node[15].content_store 	decision_no[15] 	9110
scalar tree_4_3_u07_r10_network.node[15].content_store 	decision_ratio[15] 	0.011287171695246
scalar tree_4_3_u07_r10_network.node[16].core_layer 	interests[16] 	12031
scalar tree_4_3_u07_r10_network.node[16].core_layer 	data[16] 	9064
scalar tree_4_3_u07_r10_network.node[16].content_store 	p_hit[16] 	0.24661291663203
scalar tree_4_3_u07_r10_network.node[16].content_store 	hits[16] 	2967
scalar tree_4_3_u07_r10_network.node[16].content_store 	misses[16] 	9064
scalar tree_4_3_u07_r10_network.node[16].content_store 	decision_yes[16] 	85
scalar tree_4_3_u07_r10_network.node[16].content_store 	decision_no[16] 	8979
scalar tree_4_3_u07_r10_network.node[16].content_store 	decision_ratio[16] 	0.0093777581641659
scalar tree_4_3_u07_r10_network.node[17].core_layer 	interests[17] 	11991
scalar tree_4_3_u07_r10_network.node[17].core_layer 	data[17] 	9160
scalar tree_4_3_u07_r10_network.node[17].content_store 	p_hit[17] 	0.23609373696939
scalar tree_4_3_u07_r10_network.node[17].content_store 	hits[17] 	2831
scalar tree_4_3_u07_r10_network.node[17].content_store 	misses[17] 	9160
scalar tree_4_3_u07_r10_network.node[17].content_store 	decision_yes[17] 	86
scalar tree_4_3_u07_r10_network.node[17].content_store 	decision_no[17] 	9074
scalar tree_4_3_u07_r10_network.node[17].content_store 	decision_ratio[17] 	0.0093886462882096
scalar tree_4_3_u07_r10_network.node[18].core_layer 	interests[18] 	12144
scalar tree_4_3_u07_r10_network.node[18].core_layer 	data[18] 	9226
scalar tree_4_3_u07_r10_network.node[18].content_store 	p_hit[18] 	0.24028326745718
scalar tree_4_3_u07_r10_network.node[18].content_store 	hits[18] 	2918
scalar tree_4_3_u07_r10_network.node[18].content_store 	misses[18] 	9226
scalar tree_4_3_u07_r10_network.node[18].content_store 	decision_yes[18] 	100
scalar tree_4_3_u07_r10_network.node[18].content_store 	decision_no[18] 	9126
scalar tree_4_3_u07_r10_network.node[18].content_store 	decision_ratio[18] 	0.010838933448949
scalar tree_4_3_u07_r10_network.node[19].core_layer 	interests[19] 	11935
scalar tree_4_3_u07_r10_network.node[19].core_layer 	data[19] 	9007
scalar tree_4_3_u07_r10_network.node[19].content_store 	p_hit[19] 	0.24541265186426
scalar tree_4_3_u07_r10_network.node[19].content_store 	hits[19] 	2929
scalar tree_4_3_u07_r10_network.node[19].content_store 	misses[19] 	9006
scalar tree_4_3_u07_r10_network.node[19].content_store 	decision_yes[19] 	93
scalar tree_4_3_u07_r10_network.node[19].content_store 	decision_no[19] 	8914
scalar tree_4_3_u07_r10_network.node[19].content_store 	decision_ratio[19] 	0.010325302542467
scalar tree_4_3_u07_r10_network.node[20].core_layer 	interests[20] 	12044
scalar tree_4_3_u07_r10_network.node[20].core_layer 	data[20] 	9140
scalar tree_4_3_u07_r10_network.node[20].content_store 	p_hit[20] 	0.24119893723016
scalar tree_4_3_u07_r10_network.node[20].content_store 	hits[20] 	2905
scalar tree_4_3_u07_r10_network.node[20].content_store 	misses[20] 	9139
scalar tree_4_3_u07_r10_network.node[20].content_store 	decision_yes[20] 	82
scalar tree_4_3_u07_r10_network.node[20].content_store 	decision_no[20] 	9058
scalar tree_4_3_u07_r10_network.node[20].content_store 	decision_ratio[20] 	0.0089715536105033
scalar tree_4_3_u07_r10_network.node[21].core_layer 	interests[21] 	11942
scalar tree_4_3_u07_r10_network.node[21].core_layer 	data[21] 	9078
scalar tree_4_3_u07_r10_network.node[21].content_store 	p_hit[21] 	0.23982582481996
scalar tree_4_3_u07_r10_network.node[21].content_store 	hits[21] 	2864
scalar tree_4_3_u07_r10_network.node[21].content_store 	misses[21] 	9078
scalar tree_4_3_u07_r10_network.node[21].content_store 	decision_yes[21] 	108
scalar tree_4_3_u07_r10_network.node[21].content_store 	decision_no[21] 	8970
scalar tree_4_3_u07_r10_network.node[21].content_store 	decision_ratio[21] 	0.011896893588896
scalar tree_4_3_u07_r10_network.node[22].core_layer 	interests[22] 	11981
scalar tree_4_3_u07_r10_network.node[22].core_layer 	data[22] 	9256
scalar tree_4_3_u07_r10_network.node[22].content_store 	p_hit[22] 	0.22744345213254
scalar tree_4_3_u07_r10_network.node[22].content_store 	hits[22] 	2725
scalar tree_4_3_u07_r10_network.node[22].content_store 	misses[22] 	9256
scalar tree_4_3_u07_r10_network.node[22].content_store 	decision_yes[22] 	95
scalar tree_4_3_u07_r10_network.node[22].content_store 	decision_no[22] 	9161
scalar tree_4_3_u07_r10_network.node[22].content_store 	decision_ratio[22] 	0.010263612791703
scalar tree_4_3_u07_r10_network.node[23].core_layer 	interests[23] 	11950
scalar tree_4_3_u07_r10_network.node[23].core_layer 	data[23] 	8989
scalar tree_4_3_u07_r10_network.node[23].content_store 	p_hit[23] 	0.24786610878661
scalar tree_4_3_u07_r10_network.node[23].content_store 	hits[23] 	2962
scalar tree_4_3_u07_r10_network.node[23].content_store 	misses[23] 	8988
scalar tree_4_3_u07_r10_network.node[23].content_store 	decision_yes[23] 	93
scalar tree_4_3_u07_r10_network.node[23].content_store 	decision_no[23] 	8896
scalar tree_4_3_u07_r10_network.node[23].content_store 	decision_ratio[23] 	0.010345978418067
scalar tree_4_3_u07_r10_network.node[24].core_layer 	interests[24] 	11932
scalar tree_4_3_u07_r10_network.node[24].core_layer 	data[24] 	9020
scalar tree_4_3_u07_r10_network.node[24].content_store 	p_hit[24] 	0.24404961448207
scalar tree_4_3_u07_r10_network.node[24].content_store 	hits[24] 	2912
scalar tree_4_3_u07_r10_network.node[24].content_store 	misses[24] 	9020
scalar tree_4_3_u07_r10_network.node[24].content_store 	decision_yes[24] 	100
scalar tree_4_3_u07_r10_network.node[24].content_store 	decision_no[24] 	8920
scalar tree_4_3_u07_r10_network.node[24].content_store 	decision_ratio[24] 	0.011086474501109
scalar tree_4_3_u07_r10_network.node[25].core_layer 	interests[25] 	12062
scalar tree_4_3_u07_r10_network.node[25].core_layer 	data[25] 	9161
scalar tree_4_3_u07_r10_network.node[25].content_store 	p_hit[25] 	0.24042447355331
scalar tree_4_3_u07_r10_network.node[25].content_store 	hits[25] 	2900
scalar tree_4_3_u07_r10_network.node[25].content_store 	misses[25] 	9162
scalar tree_4_3_u07_r10_network.node[25].content_store 	decision_yes[25] 	93
scalar tree_4_3_u07_r10_network.node[25].content_store 	decision_no[25] 	9068
scalar tree_4_3_u07_r10_network.node[25].content_store 	decision_ratio[25] 	0.010151730160463
scalar tree_4_3_u07_r10_network.node[26].core_layer 	interests[26] 	11972
scalar tree_4_3_u07_r10_network.node[26].core_layer 	data[26] 	8955
scalar tree_4_3_u07_r10_network.node[26].content_store 	p_hit[26] 	0.25183762111594
scalar tree_4_3_u07_r10_network.node[26].content_store 	hits[26] 	3015
scalar tree_4_3_u07_r10_network.node[26].content_store 	misses[26] 	8957
scalar tree_4_3_u07_r10_network.node[26].content_store 	decision_yes[26] 	97
scalar tree_4_3_u07_r10_network.node[26].content_store 	decision_no[26] 	8858
scalar tree_4_3_u07_r10_network.node[26].content_store 	decision_ratio[26] 	0.010831937465103
scalar tree_4_3_u07_r10_network.node[27].core_layer 	interests[27] 	11986
scalar tree_4_3_u07_r10_network.node[27].core_layer 	data[27] 	9160
scalar tree_4_3_u07_r10_network.node[27].content_store 	p_hit[27] 	0.23560820957784
scalar tree_4_3_u07_r10_network.node[27].content_store 	hits[27] 	2824
scalar tree_4_3_u07_r10_network.node[27].content_store 	misses[27] 	9162
scalar tree_4_3_u07_r10_network.node[27].content_store 	decision_yes[27] 	78
scalar tree_4_3_u07_r10_network.node[27].content_store 	decision_no[27] 	9082
scalar tree_4_3_u07_r10_network.node[27].content_store 	decision_ratio[27] 	0.0085152838427948
scalar tree_4_3_u07_r10_network.node[28].core_layer 	interests[28] 	11910
scalar tree_4_3_u07_r10_network.node[28].core_layer 	data[28] 	8922
scalar tree_4_3_u07_r10_network.node[28].content_store 	p_hit[28] 	0.25088161209068
scalar tree_4_3_u07_r10_network.node[28].content_store 	hits[28] 	2988
scalar tree_4_3_u07_r10_network.node[28].content_store 	misses[28] 	8922
scalar tree_4_3_u07_r10_network.node[28].content_store 	decision_yes[28] 	72
scalar tree_4_3_u07_r10_network.node[28].content_store 	decision_no[28] 	8850
scalar tree_4_3_u07_r10_network.node[28].content_store 	decision_ratio[28] 	0.0080699394754539
scalar tree_4_3_u07_r10_network.node[29].core_layer 	interests[29] 	12055
scalar tree_4_3_u07_r10_network.node[29].core_layer 	data[29] 	8987
scalar tree_4_3_u07_r10_network.node[29].content_store 	p_hit[29] 	0.25450020738283
scalar tree_4_3_u07_r10_network.node[29].content_store 	hits[29] 	3068
scalar tree_4_3_u07_r10_network.node[29].content_store 	misses[29] 	8987
scalar tree_4_3_u07_r10_network.node[29].content_store 	decision_yes[29] 	76
scalar tree_4_3_u07_r10_network.node[29].content_store 	decision_no[29] 	8911
scalar tree_4_3_u07_r10_network.node[29].content_store 	decision_ratio[29] 	0.0084566596194503
scalar tree_4_3_u07_r10_network.node[30].core_layer 	interests[30] 	12032
scalar tree_4_3_u07_r10_network.node[30].core_layer 	data[30] 	8970
scalar tree_4_3_u07_r10_network.node[30].content_store 	p_hit[30] 	0.25440492021277
scalar tree_4_3_u07_r10_network.node[30].content_store 	hits[30] 	3061
scalar tree_4_3_u07_r10_network.node[30].content_store 	misses[30] 	8971
scalar tree_4_3_u07_r10_network.node[30].content_store 	decision_yes[30] 	107
scalar tree_4_3_u07_r10_network.node[30].content_store 	decision_no[30] 	8863
scalar tree_4_3_u07_r10_network.node[30].content_store 	decision_ratio[30] 	0.011928651059086
scalar tree_4_3_u07_r10_network.node[31].core_layer 	interests[31] 	12062
scalar tree_4_3_u07_r10_network.node[31].core_layer 	data[31] 	9136
scalar tree_4_3_u07_r10_network.node[31].content_store 	p_hit[31] 	0.2425800033162
scalar tree_4_3_u07_r10_network.node[31].content_store 	hits[31] 	2926
scalar tree_4_3_u07_r10_network.node[31].content_store 	misses[31] 	9136
scalar tree_4_3_u07_r10_network.node[31].content_store 	decision_yes[31] 	93
scalar tree_4_3_u07_r10_network.node[31].content_store 	decision_no[31] 	9043
scalar tree_4_3_u07_r10_network.node[31].content_store 	decision_ratio[31] 	0.010179509632224
scalar tree_4_3_u07_r10_network.node[32].core_layer 	interests[32] 	11945
scalar tree_4_3_u07_r10_network.node[32].core_layer 	data[32] 	9022
scalar tree_4_3_u07_r10_network.node[32].content_store 	p_hit[32] 	0.24462118041021
scalar tree_4_3_u07_r10_network.node[32].content_store 	hits[32] 	2922
scalar tree_4_3_u07_r10_network.node[32].content_store 	misses[32] 	9023
scalar tree_4_3_u07_r10_network.node[32].content_store 	decision_yes[32] 	92
scalar tree_4_3_u07_r10_network.node[32].content_store 	decision_no[32] 	8930
scalar tree_4_3_u07_r10_network.node[32].content_store 	decision_ratio[32] 	0.010197295499889
scalar tree_4_3_u07_r10_network.node[33].core_layer 	interests[33] 	11961
scalar tree_4_3_u07_r10_network.node[33].core_layer 	data[33] 	9058
scalar tree_4_3_u07_r10_network.node[33].content_store 	p_hit[33] 	0.24270545940975
scalar tree_4_3_u07_r10_network.node[33].content_store 	hits[33] 	2903
scalar tree_4_3_u07_r10_network.node[33].content_store 	misses[33] 	9058
scalar tree_4_3_u07_r10_network.node[33].content_store 	decision_yes[33] 	96
scalar tree_4_3_u07_r10_network.node[33].content_store 	decision_no[33] 	8962
scalar tree_4_3_u07_r10_network.node[33].content_store 	decision_ratio[33] 	0.010598366085229
scalar tree_4_3_u07_r10_network.node[34].core_layer 	interests[34] 	11906
scalar tree_4_3_u07_r10_network.node[34].core_layer 	data[34] 	9059
scalar tree_4_3_u07_r10_network.node[34].content_store 	p_hit[34] 	0.23903913992945
scalar tree_4_3_u07_r10_network.node[34].content_store 	hits[34] 	2846
scalar tree_4_3_u07_r10_network.node[34].content_store 	misses[34] 	9060
scalar tree_4_3_u07_r10_network.node[34].content_store 	decision_yes[34] 	103
scalar tree_4_3_u07_r10_network.node[34].content_store 	decision_no[34] 	8956
scalar tree_4_3_u07_r10_network.node[34].content_store 	decision_ratio[34] 	0.011369908378408
scalar tree_4_3_u07_r10_network.node[35].core_layer 	interests[35] 	12092
scalar tree_4_3_u07_r10_network.node[35].core_layer 	data[35] 	8960
scalar tree_4_3_u07_r10_network.node[35].content_store 	p_hit[35] 	0.25901422428052
scalar tree_4_3_u07_r10_network.node[35].content_store 	hits[35] 	3132
scalar tree_4_3_u07_r10_network.node[35].content_store 	misses[35] 	8960
scalar tree_4_3_u07_r10_network.node[35].content_store 	decision_yes[35] 	85
scalar tree_4_3_u07_r10_network.node[35].content_store 	decision_no[35] 	8875
scalar tree_4_3_u07_r10_network.node[35].content_store 	decision_ratio[35] 	0.0094866071428571
scalar tree_4_3_u07_r10_network.node[36].core_layer 	interests[36] 	12041
scalar tree_4_3_u07_r10_network.node[36].core_layer 	data[36] 	9074
scalar tree_4_3_u07_r10_network.node[36].content_store 	p_hit[36] 	0.24640810563907
scalar tree_4_3_u07_r10_network.node[36].content_store 	hits[36] 	2967
scalar tree_4_3_u07_r10_network.node[36].content_store 	misses[36] 	9074
scalar tree_4_3_u07_r10_network.node[36].content_store 	decision_yes[36] 	82
scalar tree_4_3_u07_r10_network.node[36].content_store 	decision_no[36] 	8992
scalar tree_4_3_u07_r10_network.node[36].content_store 	decision_ratio[36] 	0.0090368084637426
scalar tree_4_3_u07_r10_network.node[37].core_layer 	interests[37] 	11958
scalar tree_4_3_u07_r10_network.node[37].core_layer 	data[37] 	8989
scalar tree_4_3_u07_r10_network.node[37].content_store 	p_hit[37] 	0.24828566649941
scalar tree_4_3_u07_r10_network.node[37].content_store 	hits[37] 	2969
scalar tree_4_3_u07_r10_network.node[37].content_store 	misses[37] 	8989
scalar tree_4_3_u07_r10_network.node[37].content_store 	decision_yes[37] 	86
scalar tree_4_3_u07_r10_network.node[37].content_store 	decision_no[37] 	8903
scalar tree_4_3_u07_r10_network.node[37].content_store 	decision_ratio[37] 	0.0095672488597174
scalar tree_4_3_u07_r10_network.node[38].core_layer 	interests[38] 	12142
scalar tree_4_3_u07_r10_network.node[38].core_layer 	data[38] 	9204
scalar tree_4_3_u07_r10_network.node[38].content_store 	p_hit[38] 	0.24188766265854
scalar tree_4_3_u07_r10_network.node[38].content_store 	hits[38] 	2937
scalar tree_4_3_u07_r10_network.node[38].content_store 	misses[38] 	9205
scalar tree_4_3_u07_r10_network.node[38].content_store 	decision_yes[38] 	75
scalar tree_4_3_u07_r10_network.node[38].content_store 	decision_no[38] 	9129
scalar tree_4_3_u07_r10_network.node[38].content_store 	decision_ratio[38] 	0.008148631029987
scalar tree_4_3_u07_r10_network.node[39].core_layer 	interests[39] 	11852
scalar tree_4_3_u07_r10_network.node[39].core_layer 	data[39] 	9051
scalar tree_4_3_u07_r10_network.node[39].content_store 	p_hit[39] 	0.23633142085724
scalar tree_4_3_u07_r10_network.node[39].content_store 	hits[39] 	2801
scalar tree_4_3_u07_r10_network.node[39].content_store 	misses[39] 	9051
scalar tree_4_3_u07_r10_network.node[39].content_store 	decision_yes[39] 	101
scalar tree_4_3_u07_r10_network.node[39].content_store 	decision_no[39] 	8950
scalar tree_4_3_u07_r10_network.node[39].content_store 	decision_ratio[39] 	0.011158987957132
scalar tree_4_3_u07_r10_network.client[13] 	hdistance[13] 	2.8916268544129
scalar tree_4_3_u07_r10_network.client[13] 	downloads[13] 	11931
scalar tree_4_3_u07_r10_network.client[13] 	avg_time[13] 	0.004402406824
scalar tree_4_3_u07_r10_network.client[14] 	hdistance[14] 	2.8781830695114
scalar tree_4_3_u07_r10_network.client[14] 	downloads[14] 	11624
scalar tree_4_3_u07_r10_network.client[14] 	avg_time[14] 	0.00438048663
scalar tree_4_3_u07_r10_network.client[15] 	hdistance[15] 	2.8539131864518
scalar tree_4_3_u07_r10_network.client[15] 	downloads[15] 	12164
scalar tree_4_3_u07_r10_network.client[15] 	avg_time[15] 	0.004340838777
scalar tree_4_3_u07_r10_network.client[16] 	hdistance[16] 	2.8439032499377
scalar tree_4_3_u07_r10_network.client[16] 	downloads[16] 	12031
scalar tree_4_3_u07_r10_network.client[16] 	avg_time[16] 	0.004323328366
scalar tree_4_3_u07_r10_network.client[17] 	hdistance[17] 	2.8734884496706
scalar tree_4_3_u07_r10_network.client[17] 	downloads[17] 	11991
scalar tree_4_3_u07_r10_network.client[17] 	avg_time[17] 	0.004370274723
scalar tree_4_3_u07_r10_network.client[18] 	hdistance[18] 	2.858860342556
scalar tree_4_3_u07_r10_network.client[18] 	downloads[18] 	12144
scalar tree_4_3_u07_r10_network.client[18] 	avg_time[18] 	0.004351446216
scalar tree_4_3_u07_r10_network.client[19] 	hdistance[19] 	2.8453418230563
scalar tree_4_3_u07_r10_network.client[19] 	downloads[19] 	11936
scalar tree_4_3_u07_r10_network.client[19] 	avg_time[19] 	0.00432858281
scalar tree_4_3_u07_r10_network.client[20] 	hdistance[20] 	2.8885844748858
scalar tree_4_3_u07_r10_network.client[20] 	downloads[20] 	12045
scalar tree_4_3_u07_r10_network.client[20] 	avg_time[20] 	0.004387972073
scalar tree_4_3_u07_r10_network.client[21] 	hdistance[21] 	2.8862837045721
scalar tree_4_3_u07_r10_network.client[21] 	downloads[21] 	11942
scalar tree_4_3_u07_r10_network.client[21] 	avg_time[21] 	0.004387225387
scalar tree_4_3_u07_r10_network.client[22] 	hdistance[22] 	2.9025123111593
scalar tree_4_3_u07_r10_network.client[22] 	downloads[22] 	11981
scalar tree_4_3_u07_r10_network.client[22] 	avg_time[22] 	0.004419672968
scalar tree_4_3_u07_r10_network.client[23] 	hdistance[23] 	2.8431930382395
scalar tree_4_3_u07_r10_network.client[23] 	downloads[23] 	11951
scalar tree_4_3_u07_r10_network.client[23] 	avg_time[23] 	0.004322815189
scalar tree_4_3_u07_r10_network.client[24] 	hdistance[24] 	2.8612135434127
scalar tree_4_3_u07_r10_network.client[24] 	downloads[24] 	11932
scalar tree_4_3_u07_r10_network.client[24] 	avg_time[24] 	0.004352662129
scalar tree_4_3_u07_r10_network.client[25] 	hdistance[25] 	2.8725644639748
scalar tree_4_3_u07_r10_network.client[25] 	downloads[25] 	12061
scalar tree_4_3_u07_r10_network.client[25] 	avg_time[25] 	0.004368203117
scalar tree_4_3_u07_r10_network.client[26] 	hdistance[26] 	2.8096908939014
scalar tree_4_3_u07_r10_network.client[26] 	downloads[26] 	11970
scalar tree_4_3_u07_r10_network.client[26] 	avg_time[26] 	0.004278458455
scalar tree_4_3_u07_r10_network.client[27] 	hdistance[27] 	2.8635680907877
scalar tree_4_3_u07_r10_network.client[27] 	downloads[27] 	11984
scalar tree_4_3_u07_r10_network.client[27] 	avg_time[27] 	0.004359653227
scalar tree_4_3_u07_r10_network.client[28] 	hdistance[28] 	2.8280436607893
scalar tree_4_3_u07_r10_network.client[28] 	downloads[28] 	11910
scalar tree_4_3_u07_r10_network.client[28] 	avg_time[28] 	0.004303439478
scalar tree_4_3_u07_r10_network.client[29] 	hdistance[29] 	2.8050601410203
scalar tree_4_3_u07_r10_network.client[29] 	downloads[29] 	12055
scalar tree_4_3_u07_r10_network.client[29] 	avg_time[29] 	0.004272580972
scalar tree_4_3_u07_r10_network.client[30] 	hdistance[30] 	2.8198819715734
scalar tree_4_3_u07_r10_network.client[30] 	downloads[30] 	12031
scalar tree_4_3_u07_r10_network.client[30] 	avg_time[30] 	0.004289558952
scalar tree_4_3_u07_r10_network.client[31] 	hdistance[31] 	2.8692588293815
scalar tree_4_3_u07_r10_network.client[31] 	downloads[31] 	12062
scalar tree_4_3_u07_r10_network.client[31] 	avg_time[31] 	0.004361296931
scalar tree_4_3_u07_r10_network.client[32] 	hdistance[32] 	2.8231748158071
scalar tree_4_3_u07_r10_network.client[32] 	downloads[32] 	11944
scalar tree_4_3_u07_r10_network.client[32] 	avg_time[32] 	0.004299561639
scalar tree_4_3_u07_r10_network.client[33] 	hdistance[33] 	2.828860463172
scalar tree_4_3_u07_r10_network.client[33] 	downloads[33] 	11961
scalar tree_4_3_u07_r10_network.client[33] 	avg_time[33] 	0.004309335701
scalar tree_4_3_u07_r10_network.client[34] 	hdistance[34] 	2.870054598908
scalar tree_4_3_u07_r10_network.client[34] 	downloads[34] 	11905
scalar tree_4_3_u07_r10_network.client[34] 	avg_time[34] 	0.004367289875
scalar tree_4_3_u07_r10_network.client[35] 	hdistance[35] 	2.8250082699305
scalar tree_4_3_u07_r10_network.client[35] 	downloads[35] 	12092
scalar tree_4_3_u07_r10_network.client[35] 	avg_time[35] 	0.004293083301
scalar tree_4_3_u07_r10_network.client[36] 	hdistance[36] 	2.820363757163
scalar tree_4_3_u07_r10_network.client[36] 	downloads[36] 	12041
scalar tree_4_3_u07_r10_network.client[36] 	avg_time[36] 	0.004294214571
scalar tree_4_3_u07_r10_network.client[37] 	hdistance[37] 	2.8319116909182
scalar tree_4_3_u07_r10_network.client[37] 	downloads[37] 	11958
scalar tree_4_3_u07_r10_network.client[37] 	avg_time[37] 	0.004306876329
scalar tree_4_3_u07_r10_network.client[38] 	hdistance[38] 	2.8661560003295
scalar tree_4_3_u07_r10_network.client[38] 	downloads[38] 	12141
scalar tree_4_3_u07_r10_network.client[38] 	avg_time[38] 	0.004358946019
scalar tree_4_3_u07_r10_network.client[39] 	hdistance[39] 	2.8631454606818
scalar tree_4_3_u07_r10_network.client[39] 	downloads[39] 	11852
scalar tree_4_3_u07_r10_network.client[39] 	avg_time[39] 	0.004358417546
