version 2
run General-143-20160819-23:42:43-9589
attr a 0.9
attr cd fix0.01
attr configname General
attr cr lru
attr datetime 20160819-23:42:43
attr experiment General
attr fsize 1
attr inifile hw5115/scenario_A/SPR-FIX0.01.ini
attr iterationvars "$name=tree_4_3, $un=07, $rep=4, $cd=fix0.01, $cr=lru, $fsize=1, $a=0.9, $sl=spr, $ttl=1000, $variance=0.05"
attr iterationvars2 "$name=tree_4_3, $un=07, $rep=4, $cd=fix0.01, $cr=lru, $fsize=1, $a=0.9, $sl=spr, $ttl=1000, $variance=0.05, $repetition=0"
attr measurement "$name=tree_4_3, $un=07, $rep=4, $cd=fix0.01, $cr=lru, $fsize=1, $a=0.9, $sl=spr, $ttl=1000, $variance=0.05"
attr name tree_4_3
attr network networks.${name}_u${un}_r${rep}_network
attr processid 9589
attr rep 4
attr repetition 0
attr replication #0
attr resultdir results
attr runnumber 143
attr seedset 4
attr sl spr
attr ttl 1000
attr un 07
attr variance 0.05

scalar . 	a 	0.9
scalar . 	fsize 	1
scalar . 	rep 	4
scalar . 	ttl 	1000
scalar . 	un 	07
scalar . 	variance 	0.05
scalar tree_4_3_u07_r4_network.content_distribution 	repo-0 	0
scalar tree_4_3_u07_r4_network.content_distribution 	client-0 	13
scalar tree_4_3_u07_r4_network.content_distribution 	client-1 	14
scalar tree_4_3_u07_r4_network.content_distribution 	client-2 	15
scalar tree_4_3_u07_r4_network.content_distribution 	client-3 	16
scalar tree_4_3_u07_r4_network.content_distribution 	client-4 	17
scalar tree_4_3_u07_r4_network.content_distribution 	client-5 	18
scalar tree_4_3_u07_r4_network.content_distribution 	client-6 	19
scalar tree_4_3_u07_r4_network.content_distribution 	client-7 	20
scalar tree_4_3_u07_r4_network.content_distribution 	client-8 	21
scalar tree_4_3_u07_r4_network.content_distribution 	client-9 	22
scalar tree_4_3_u07_r4_network.content_distribution 	client-10 	23
scalar tree_4_3_u07_r4_network.content_distribution 	client-11 	24
scalar tree_4_3_u07_r4_network.content_distribution 	client-12 	25
scalar tree_4_3_u07_r4_network.content_distribution 	client-13 	26
scalar tree_4_3_u07_r4_network.content_distribution 	client-14 	27
scalar tree_4_3_u07_r4_network.content_distribution 	client-15 	28
scalar tree_4_3_u07_r4_network.content_distribution 	client-16 	29
scalar tree_4_3_u07_r4_network.content_distribution 	client-17 	30
scalar tree_4_3_u07_r4_network.content_distribution 	client-18 	31
scalar tree_4_3_u07_r4_network.content_distribution 	client-19 	32
scalar tree_4_3_u07_r4_network.content_distribution 	client-20 	33
scalar tree_4_3_u07_r4_network.content_distribution 	client-21 	34
scalar tree_4_3_u07_r4_network.content_distribution 	client-22 	35
scalar tree_4_3_u07_r4_network.content_distribution 	client-23 	36
scalar tree_4_3_u07_r4_network.content_distribution 	client-24 	37
scalar tree_4_3_u07_r4_network.content_distribution 	client-25 	38
scalar tree_4_3_u07_r4_network.content_distribution 	client-26 	39
scalar tree_4_3_u07_r4_network.content_distribution 	repo-0_card 	100000
scalar tree_4_3_u07_r4_network.content_distribution 	repo-0_price 	0
scalar tree_4_3_u07_r4_network.statistics 	stabilization_time 	2694.4
scalar tree_4_3_u07_r4_network.statistics 	p_hit 	0.17797133676592
scalar tree_4_3_u07_r4_network.statistics 	interests 	25571.975
scalar tree_4_3_u07_r4_network.statistics 	data 	17508.75
scalar tree_4_3_u07_r4_network.statistics 	hdistance 	2.8533029252392
scalar tree_4_3_u07_r4_network.statistics 	avg_time 	0.00434278232
scalar tree_4_3_u07_r4_network.statistics 	downloads 	322529
scalar tree_4_3_u07_r4_network.statistics 	total_cost 	0
scalar tree_4_3_u07_r4_network.statistics 	total_replicas 	100000
scalar tree_4_3_u07_r4_network.statistics 	inner_hit 	0.31813883402733
scalar tree_4_3_u07_r4_network.node[0].core_layer 	interests[0] 	224525
scalar tree_4_3_u07_r4_network.node[0].core_layer 	repo_load[0] 	219920
scalar tree_4_3_u07_r4_network.node[0].core_layer 	data[0] 	0
scalar tree_4_3_u07_r4_network.node[0].core_layer 	repo_int[0] 	219920
scalar tree_4_3_u07_r4_network.node[0].content_store 	p_hit[0] 	0.020509965482686
scalar tree_4_3_u07_r4_network.node[0].content_store 	hits[0] 	4605
scalar tree_4_3_u07_r4_network.node[0].content_store 	misses[0] 	219920
scalar tree_4_3_u07_r4_network.node[0].content_store 	decision_yes[0] 	2237
scalar tree_4_3_u07_r4_network.node[0].content_store 	decision_no[0] 	217683
scalar tree_4_3_u07_r4_network.node[0].content_store 	decision_ratio[0] 	0.010171880683885
scalar tree_4_3_u07_r4_network.node[1].core_layer 	interests[1] 	119467
scalar tree_4_3_u07_r4_network.node[1].core_layer 	data[1] 	116276
scalar tree_4_3_u07_r4_network.node[1].content_store 	p_hit[1] 	0.026701934425406
scalar tree_4_3_u07_r4_network.node[1].content_store 	hits[1] 	3190
scalar tree_4_3_u07_r4_network.node[1].content_store 	misses[1] 	116277
scalar tree_4_3_u07_r4_network.node[1].content_store 	decision_yes[1] 	1149
scalar tree_4_3_u07_r4_network.node[1].content_store 	decision_no[1] 	115127
scalar tree_4_3_u07_r4_network.node[1].content_store 	decision_ratio[1] 	0.0098816608758471
scalar tree_4_3_u07_r4_network.node[2].core_layer 	interests[2] 	68613
scalar tree_4_3_u07_r4_network.node[2].core_layer 	data[2] 	66697
scalar tree_4_3_u07_r4_network.node[2].content_store 	p_hit[2] 	0.027924737294682
scalar tree_4_3_u07_r4_network.node[2].content_store 	hits[2] 	1916
scalar tree_4_3_u07_r4_network.node[2].content_store 	misses[2] 	66697
scalar tree_4_3_u07_r4_network.node[2].content_store 	decision_yes[2] 	634
scalar tree_4_3_u07_r4_network.node[2].content_store 	decision_no[2] 	66063
scalar tree_4_3_u07_r4_network.node[2].content_store 	decision_ratio[2] 	0.0095056749179124
scalar tree_4_3_u07_r4_network.node[3].core_layer 	interests[3] 	42909
scalar tree_4_3_u07_r4_network.node[3].core_layer 	data[3] 	41554
scalar tree_4_3_u07_r4_network.node[3].content_store 	p_hit[3] 	0.031555151599897
scalar tree_4_3_u07_r4_network.node[3].content_store 	hits[3] 	1354
scalar tree_4_3_u07_r4_network.node[3].content_store 	misses[3] 	41555
scalar tree_4_3_u07_r4_network.node[3].content_store 	decision_yes[3] 	423
scalar tree_4_3_u07_r4_network.node[3].content_store 	decision_no[3] 	41131
scalar tree_4_3_u07_r4_network.node[3].content_store 	decision_ratio[3] 	0.010179525436781
scalar tree_4_3_u07_r4_network.node[4].core_layer 	interests[4] 	36101
scalar tree_4_3_u07_r4_network.node[4].core_layer 	data[4] 	34053
scalar tree_4_3_u07_r4_network.node[4].content_store 	p_hit[4] 	0.05670203041467
scalar tree_4_3_u07_r4_network.node[4].content_store 	hits[4] 	2047
scalar tree_4_3_u07_r4_network.node[4].content_store 	misses[4] 	34054
scalar tree_4_3_u07_r4_network.node[4].content_store 	decision_yes[4] 	354
scalar tree_4_3_u07_r4_network.node[4].content_store 	decision_no[4] 	33699
scalar tree_4_3_u07_r4_network.node[4].content_store 	decision_ratio[4] 	0.010395559862567
scalar tree_4_3_u07_r4_network.node[5].core_layer 	interests[5] 	35731
scalar tree_4_3_u07_r4_network.node[5].core_layer 	data[5] 	33896
scalar tree_4_3_u07_r4_network.node[5].content_store 	p_hit[5] 	0.051355965408189
scalar tree_4_3_u07_r4_network.node[5].content_store 	hits[5] 	1835
scalar tree_4_3_u07_r4_network.node[5].content_store 	misses[5] 	33896
scalar tree_4_3_u07_r4_network.node[5].content_store 	decision_yes[5] 	318
scalar tree_4_3_u07_r4_network.node[5].content_store 	decision_no[5] 	33578
scalar tree_4_3_u07_r4_network.node[5].content_store 	decision_ratio[5] 	0.0093816379513807
scalar tree_4_3_u07_r4_network.node[6].core_layer 	interests[6] 	8987
scalar tree_4_3_u07_r4_network.node[6].core_layer 	data[6] 	8562
scalar tree_4_3_u07_r4_network.node[6].content_store 	p_hit[6] 	0.047290530766663
scalar tree_4_3_u07_r4_network.node[6].content_store 	hits[6] 	425
scalar tree_4_3_u07_r4_network.node[6].content_store 	misses[6] 	8562
scalar tree_4_3_u07_r4_network.node[6].content_store 	decision_yes[6] 	59
scalar tree_4_3_u07_r4_network.node[6].content_store 	decision_no[6] 	8503
scalar tree_4_3_u07_r4_network.node[6].content_store 	decision_ratio[6] 	0.0068909133380051
scalar tree_4_3_u07_r4_network.node[7].core_layer 	interests[7] 	45320
scalar tree_4_3_u07_r4_network.node[7].core_layer 	data[7] 	42958
scalar tree_4_3_u07_r4_network.node[7].content_store 	p_hit[7] 	0.052140335392763
scalar tree_4_3_u07_r4_network.node[7].content_store 	hits[7] 	2363
scalar tree_4_3_u07_r4_network.node[7].content_store 	misses[7] 	42957
scalar tree_4_3_u07_r4_network.node[7].content_store 	decision_yes[7] 	421
scalar tree_4_3_u07_r4_network.node[7].content_store 	decision_no[7] 	42537
scalar tree_4_3_u07_r4_network.node[7].content_store 	decision_ratio[7] 	0.0098002700311933
scalar tree_4_3_u07_r4_network.node[8].core_layer 	interests[8] 	27554
scalar tree_4_3_u07_r4_network.node[8].core_layer 	data[8] 	25734
scalar tree_4_3_u07_r4_network.node[8].content_store 	p_hit[8] 	0.066088408216593
scalar tree_4_3_u07_r4_network.node[8].content_store 	hits[8] 	1821
scalar tree_4_3_u07_r4_network.node[8].content_store 	misses[8] 	25733
scalar tree_4_3_u07_r4_network.node[8].content_store 	decision_yes[8] 	235
scalar tree_4_3_u07_r4_network.node[8].content_store 	decision_no[8] 	25499
scalar tree_4_3_u07_r4_network.node[8].content_store 	decision_ratio[8] 	0.0091318877749281
scalar tree_4_3_u07_r4_network.node[9].core_layer 	interests[9] 	9109
scalar tree_4_3_u07_r4_network.node[9].core_layer 	data[9] 	8602
scalar tree_4_3_u07_r4_network.node[9].content_store 	p_hit[9] 	0.055659238116149
scalar tree_4_3_u07_r4_network.node[9].content_store 	hits[9] 	507
scalar tree_4_3_u07_r4_network.node[9].content_store 	misses[9] 	8602
scalar tree_4_3_u07_r4_network.node[9].content_store 	decision_yes[9] 	98
scalar tree_4_3_u07_r4_network.node[9].content_store 	decision_no[9] 	8504
scalar tree_4_3_u07_r4_network.node[9].content_store 	decision_ratio[9] 	0.011392699372239
scalar tree_4_3_u07_r4_network.node[10].core_layer 	interests[10] 	36358
scalar tree_4_3_u07_r4_network.node[10].core_layer 	data[10] 	34323
scalar tree_4_3_u07_r4_network.node[10].content_store 	p_hit[10] 	0.055943671269047
scalar tree_4_3_u07_r4_network.node[10].content_store 	hits[10] 	2034
scalar tree_4_3_u07_r4_network.node[10].content_store 	misses[10] 	34324
scalar tree_4_3_u07_r4_network.node[10].content_store 	decision_yes[10] 	361
scalar tree_4_3_u07_r4_network.node[10].content_store 	decision_no[10] 	33962
scalar tree_4_3_u07_r4_network.node[10].content_store 	decision_ratio[10] 	0.010517728636774
scalar tree_4_3_u07_r4_network.node[11].core_layer 	interests[11] 	36528
scalar tree_4_3_u07_r4_network.node[11].core_layer 	data[11] 	34278
scalar tree_4_3_u07_r4_network.node[11].content_store 	p_hit[11] 	0.06156920718353
scalar tree_4_3_u07_r4_network.node[11].content_store 	hits[11] 	2249
scalar tree_4_3_u07_r4_network.node[11].content_store 	misses[11] 	34279
scalar tree_4_3_u07_r4_network.node[11].content_store 	decision_yes[11] 	335
scalar tree_4_3_u07_r4_network.node[11].content_store 	decision_no[11] 	33943
scalar tree_4_3_u07_r4_network.node[11].content_store 	decision_ratio[11] 	0.0097730322655931
scalar tree_4_3_u07_r4_network.node[12].core_layer 	interests[12] 	9142
scalar tree_4_3_u07_r4_network.node[12].core_layer 	data[12] 	8585
scalar tree_4_3_u07_r4_network.node[12].content_store 	p_hit[12] 	0.060927586961278
scalar tree_4_3_u07_r4_network.node[12].content_store 	hits[12] 	557
scalar tree_4_3_u07_r4_network.node[12].content_store 	misses[12] 	8585
scalar tree_4_3_u07_r4_network.node[12].content_store 	decision_yes[12] 	88
scalar tree_4_3_u07_r4_network.node[12].content_store 	decision_no[12] 	8497
scalar tree_4_3_u07_r4_network.node[12].content_store 	decision_ratio[12] 	0.010250436808387
scalar tree_4_3_u07_r4_network.node[13].core_layer 	interests[13] 	12086
scalar tree_4_3_u07_r4_network.node[13].core_layer 	data[13] 	9233
scalar tree_4_3_u07_r4_network.node[13].content_store 	p_hit[13] 	0.23605824921397
scalar tree_4_3_u07_r4_network.node[13].content_store 	hits[13] 	2853
scalar tree_4_3_u07_r4_network.node[13].content_store 	misses[13] 	9233
scalar tree_4_3_u07_r4_network.node[13].content_store 	decision_yes[13] 	94
scalar tree_4_3_u07_r4_network.node[13].content_store 	decision_no[13] 	9139
scalar tree_4_3_u07_r4_network.node[13].content_store 	decision_ratio[13] 	0.010180872955702
scalar tree_4_3_u07_r4_network.node[14].core_layer 	interests[14] 	12025
scalar tree_4_3_u07_r4_network.node[14].core_layer 	data[14] 	9097
scalar tree_4_3_u07_r4_network.node[14].content_store 	p_hit[14] 	0.24349272349272
scalar tree_4_3_u07_r4_network.node[14].content_store 	hits[14] 	2928
scalar tree_4_3_u07_r4_network.node[14].content_store 	misses[14] 	9097
scalar tree_4_3_u07_r4_network.node[14].content_store 	decision_yes[14] 	78
scalar tree_4_3_u07_r4_network.node[14].content_store 	decision_no[14] 	9019
scalar tree_4_3_u07_r4_network.node[14].content_store 	decision_ratio[14] 	0.0085742552489832
scalar tree_4_3_u07_r4_network.node[15].core_layer 	interests[15] 	11874
scalar tree_4_3_u07_r4_network.node[15].core_layer 	data[15] 	8986
scalar tree_4_3_u07_r4_network.node[15].content_store 	p_hit[15] 	0.24322048172478
scalar tree_4_3_u07_r4_network.node[15].content_store 	hits[15] 	2888
scalar tree_4_3_u07_r4_network.node[15].content_store 	misses[15] 	8986
scalar tree_4_3_u07_r4_network.node[15].content_store 	decision_yes[15] 	76
scalar tree_4_3_u07_r4_network.node[15].content_store 	decision_no[15] 	8910
scalar tree_4_3_u07_r4_network.node[15].content_store 	decision_ratio[15] 	0.008457600712219
scalar tree_4_3_u07_r4_network.node[16].core_layer 	interests[16] 	11827
scalar tree_4_3_u07_r4_network.node[16].core_layer 	data[16] 	8833
scalar tree_4_3_u07_r4_network.node[16].content_store 	p_hit[16] 	0.25314957301091
scalar tree_4_3_u07_r4_network.node[16].content_store 	hits[16] 	2994
scalar tree_4_3_u07_r4_network.node[16].content_store 	misses[16] 	8833
scalar tree_4_3_u07_r4_network.node[16].content_store 	decision_yes[16] 	95
scalar tree_4_3_u07_r4_network.node[16].content_store 	decision_no[16] 	8738
scalar tree_4_3_u07_r4_network.node[16].content_store 	decision_ratio[16] 	0.010755122834824
scalar tree_4_3_u07_r4_network.node[17].core_layer 	interests[17] 	11775
scalar tree_4_3_u07_r4_network.node[17].core_layer 	data[17] 	8869
scalar tree_4_3_u07_r4_network.node[17].content_store 	p_hit[17] 	0.24670912951168
scalar tree_4_3_u07_r4_network.node[17].content_store 	hits[17] 	2905
scalar tree_4_3_u07_r4_network.node[17].content_store 	misses[17] 	8870
scalar tree_4_3_u07_r4_network.node[17].content_store 	decision_yes[17] 	89
scalar tree_4_3_u07_r4_network.node[17].content_store 	decision_no[17] 	8780
scalar tree_4_3_u07_r4_network.node[17].content_store 	decision_ratio[17] 	0.010034953207802
scalar tree_4_3_u07_r4_network.node[18].core_layer 	interests[18] 	11947
scalar tree_4_3_u07_r4_network.node[18].core_layer 	data[18] 	8870
scalar tree_4_3_u07_r4_network.node[18].content_store 	p_hit[18] 	0.25755419770654
scalar tree_4_3_u07_r4_network.node[18].content_store 	hits[18] 	3077
scalar tree_4_3_u07_r4_network.node[18].content_store 	misses[18] 	8870
scalar tree_4_3_u07_r4_network.node[18].content_store 	decision_yes[18] 	94
scalar tree_4_3_u07_r4_network.node[18].content_store 	decision_no[18] 	8776
scalar tree_4_3_u07_r4_network.node[18].content_store 	decision_ratio[18] 	0.010597519729425
scalar tree_4_3_u07_r4_network.node[19].core_layer 	interests[19] 	11757
scalar tree_4_3_u07_r4_network.node[19].core_layer 	data[19] 	8785
scalar tree_4_3_u07_r4_network.node[19].content_store 	p_hit[19] 	0.25278557455133
scalar tree_4_3_u07_r4_network.node[19].content_store 	hits[19] 	2972
scalar tree_4_3_u07_r4_network.node[19].content_store 	misses[19] 	8785
scalar tree_4_3_u07_r4_network.node[19].content_store 	decision_yes[19] 	85
scalar tree_4_3_u07_r4_network.node[19].content_store 	decision_no[19] 	8700
scalar tree_4_3_u07_r4_network.node[19].content_store 	decision_ratio[19] 	0.0096755833807627
scalar tree_4_3_u07_r4_network.node[20].core_layer 	interests[20] 	12060
scalar tree_4_3_u07_r4_network.node[20].core_layer 	data[20] 	9159
scalar tree_4_3_u07_r4_network.node[20].content_store 	p_hit[20] 	0.24054726368159
scalar tree_4_3_u07_r4_network.node[20].content_store 	hits[20] 	2901
scalar tree_4_3_u07_r4_network.node[20].content_store 	misses[20] 	9159
scalar tree_4_3_u07_r4_network.node[20].content_store 	decision_yes[20] 	85
scalar tree_4_3_u07_r4_network.node[20].content_store 	decision_no[20] 	9074
scalar tree_4_3_u07_r4_network.node[20].content_store 	decision_ratio[20] 	0.0092804891363686
scalar tree_4_3_u07_r4_network.node[21].core_layer 	interests[21] 	11907
scalar tree_4_3_u07_r4_network.node[21].core_layer 	data[21] 	8987
scalar tree_4_3_u07_r4_network.node[21].content_store 	p_hit[21] 	0.24523389602755
scalar tree_4_3_u07_r4_network.node[21].content_store 	hits[21] 	2920
scalar tree_4_3_u07_r4_network.node[21].content_store 	misses[21] 	8987
scalar tree_4_3_u07_r4_network.node[21].content_store 	decision_yes[21] 	99
scalar tree_4_3_u07_r4_network.node[21].content_store 	decision_no[21] 	8888
scalar tree_4_3_u07_r4_network.node[21].content_store 	decision_ratio[21] 	0.011015911872705
scalar tree_4_3_u07_r4_network.node[22].core_layer 	interests[22] 	11946
scalar tree_4_3_u07_r4_network.node[22].core_layer 	data[22] 	9110
scalar tree_4_3_u07_r4_network.node[22].content_store 	p_hit[22] 	0.23748535074502
scalar tree_4_3_u07_r4_network.node[22].content_store 	hits[22] 	2837
scalar tree_4_3_u07_r4_network.node[22].content_store 	misses[22] 	9109
scalar tree_4_3_u07_r4_network.node[22].content_store 	decision_yes[22] 	84
scalar tree_4_3_u07_r4_network.node[22].content_store 	decision_no[22] 	9026
scalar tree_4_3_u07_r4_network.node[22].content_store 	decision_ratio[22] 	0.0092206366630077
scalar tree_4_3_u07_r4_network.node[23].core_layer 	interests[23] 	11835
scalar tree_4_3_u07_r4_network.node[23].core_layer 	data[23] 	8957
scalar tree_4_3_u07_r4_network.node[23].content_store 	p_hit[23] 	0.24326151246303
scalar tree_4_3_u07_r4_network.node[23].content_store 	hits[23] 	2879
scalar tree_4_3_u07_r4_network.node[23].content_store 	misses[23] 	8956
scalar tree_4_3_u07_r4_network.node[23].content_store 	decision_yes[23] 	100
scalar tree_4_3_u07_r4_network.node[23].content_store 	decision_no[23] 	8857
scalar tree_4_3_u07_r4_network.node[23].content_store 	decision_ratio[23] 	0.011164452383611
scalar tree_4_3_u07_r4_network.node[24].core_layer 	interests[24] 	12063
scalar tree_4_3_u07_r4_network.node[24].core_layer 	data[24] 	9121
scalar tree_4_3_u07_r4_network.node[24].content_store 	p_hit[24] 	0.2438033656636
scalar tree_4_3_u07_r4_network.node[24].content_store 	hits[24] 	2941
scalar tree_4_3_u07_r4_network.node[24].content_store 	misses[24] 	9122
scalar tree_4_3_u07_r4_network.node[24].content_store 	decision_yes[24] 	93
scalar tree_4_3_u07_r4_network.node[24].content_store 	decision_no[24] 	9028
scalar tree_4_3_u07_r4_network.node[24].content_store 	decision_ratio[24] 	0.010196250411139
scalar tree_4_3_u07_r4_network.node[25].core_layer 	interests[25] 	11983
scalar tree_4_3_u07_r4_network.node[25].core_layer 	data[25] 	8996
scalar tree_4_3_u07_r4_network.node[25].content_store 	p_hit[25] 	0.24926979888175
scalar tree_4_3_u07_r4_network.node[25].content_store 	hits[25] 	2987
scalar tree_4_3_u07_r4_network.node[25].content_store 	misses[25] 	8996
scalar tree_4_3_u07_r4_network.node[25].content_store 	decision_yes[25] 	84
scalar tree_4_3_u07_r4_network.node[25].content_store 	decision_no[25] 	8912
scalar tree_4_3_u07_r4_network.node[25].content_store 	decision_ratio[25] 	0.0093374833259226
scalar tree_4_3_u07_r4_network.node[26].core_layer 	interests[26] 	12119
scalar tree_4_3_u07_r4_network.node[26].core_layer 	data[26] 	9179
scalar tree_4_3_u07_r4_network.node[26].content_store 	p_hit[26] 	0.24251175839591
scalar tree_4_3_u07_r4_network.node[26].content_store 	hits[26] 	2939
scalar tree_4_3_u07_r4_network.node[26].content_store 	misses[26] 	9180
scalar tree_4_3_u07_r4_network.node[26].content_store 	decision_yes[26] 	97
scalar tree_4_3_u07_r4_network.node[26].content_store 	decision_no[26] 	9082
scalar tree_4_3_u07_r4_network.node[26].content_store 	decision_ratio[26] 	0.010567599956422
scalar tree_4_3_u07_r4_network.node[27].core_layer 	interests[27] 	11907
scalar tree_4_3_u07_r4_network.node[27].core_layer 	data[27] 	9055
scalar tree_4_3_u07_r4_network.node[27].content_store 	p_hit[27] 	0.2395229696817
scalar tree_4_3_u07_r4_network.node[27].content_store 	hits[27] 	2852
scalar tree_4_3_u07_r4_network.node[27].content_store 	misses[27] 	9055
scalar tree_4_3_u07_r4_network.node[27].content_store 	decision_yes[27] 	88
scalar tree_4_3_u07_r4_network.node[27].content_store 	decision_no[27] 	8967
scalar tree_4_3_u07_r4_network.node[27].content_store 	decision_ratio[27] 	0.009718387631143
scalar tree_4_3_u07_r4_network.node[28].core_layer 	interests[28] 	12038
scalar tree_4_3_u07_r4_network.node[28].core_layer 	data[28] 	9138
scalar tree_4_3_u07_r4_network.node[28].content_store 	p_hit[28] 	0.24090380461871
scalar tree_4_3_u07_r4_network.node[28].content_store 	hits[28] 	2900
scalar tree_4_3_u07_r4_network.node[28].content_store 	misses[28] 	9138
scalar tree_4_3_u07_r4_network.node[28].content_store 	decision_yes[28] 	86
scalar tree_4_3_u07_r4_network.node[28].content_store 	decision_no[28] 	9052
scalar tree_4_3_u07_r4_network.node[28].content_store 	decision_ratio[28] 	0.0094112497264172
scalar tree_4_3_u07_r4_network.node[29].core_layer 	interests[29] 	12114
scalar tree_4_3_u07_r4_network.node[29].core_layer 	data[29] 	9321
scalar tree_4_3_u07_r4_network.node[29].content_store 	p_hit[29] 	0.23055968301139
scalar tree_4_3_u07_r4_network.node[29].content_store 	hits[29] 	2793
scalar tree_4_3_u07_r4_network.node[29].content_store 	misses[29] 	9321
scalar tree_4_3_u07_r4_network.node[29].content_store 	decision_yes[29] 	99
scalar tree_4_3_u07_r4_network.node[29].content_store 	decision_no[29] 	9222
scalar tree_4_3_u07_r4_network.node[29].content_store 	decision_ratio[29] 	0.010621177985195
scalar tree_4_3_u07_r4_network.node[30].core_layer 	interests[30] 	11872
scalar tree_4_3_u07_r4_network.node[30].core_layer 	data[30] 	9109
scalar tree_4_3_u07_r4_network.node[30].content_store 	p_hit[30] 	0.23273247978437
scalar tree_4_3_u07_r4_network.node[30].content_store 	hits[30] 	2763
scalar tree_4_3_u07_r4_network.node[30].content_store 	misses[30] 	9109
scalar tree_4_3_u07_r4_network.node[30].content_store 	decision_yes[30] 	73
scalar tree_4_3_u07_r4_network.node[30].content_store 	decision_no[30] 	9036
scalar tree_4_3_u07_r4_network.node[30].content_store 	decision_ratio[30] 	0.0080140520364475
scalar tree_4_3_u07_r4_network.node[31].core_layer 	interests[31] 	11762
scalar tree_4_3_u07_r4_network.node[31].core_layer 	data[31] 	9054
scalar tree_4_3_u07_r4_network.node[31].content_store 	p_hit[31] 	0.23023295357932
scalar tree_4_3_u07_r4_network.node[31].content_store 	hits[31] 	2708
scalar tree_4_3_u07_r4_network.node[31].content_store 	misses[31] 	9054
scalar tree_4_3_u07_r4_network.node[31].content_store 	decision_yes[31] 	92
scalar tree_4_3_u07_r4_network.node[31].content_store 	decision_no[31] 	8962
scalar tree_4_3_u07_r4_network.node[31].content_store 	decision_ratio[31] 	0.010161254694058
scalar tree_4_3_u07_r4_network.node[32].core_layer 	interests[32] 	12088
scalar tree_4_3_u07_r4_network.node[32].core_layer 	data[32] 	9179
scalar tree_4_3_u07_r4_network.node[32].content_store 	p_hit[32] 	0.24056915949702
scalar tree_4_3_u07_r4_network.node[32].content_store 	hits[32] 	2908
scalar tree_4_3_u07_r4_network.node[32].content_store 	misses[32] 	9180
scalar tree_4_3_u07_r4_network.node[32].content_store 	decision_yes[32] 	95
scalar tree_4_3_u07_r4_network.node[32].content_store 	decision_no[32] 	9084
scalar tree_4_3_u07_r4_network.node[32].content_store 	decision_ratio[32] 	0.010349711297527
scalar tree_4_3_u07_r4_network.node[33].core_layer 	interests[33] 	11899
scalar tree_4_3_u07_r4_network.node[33].core_layer 	data[33] 	8881
scalar tree_4_3_u07_r4_network.node[33].content_store 	p_hit[33] 	0.25355071854778
scalar tree_4_3_u07_r4_network.node[33].content_store 	hits[33] 	3017
scalar tree_4_3_u07_r4_network.node[33].content_store 	misses[33] 	8882
scalar tree_4_3_u07_r4_network.node[33].content_store 	decision_yes[33] 	97
scalar tree_4_3_u07_r4_network.node[33].content_store 	decision_no[33] 	8784
scalar tree_4_3_u07_r4_network.node[33].content_store 	decision_ratio[33] 	0.010922193446684
scalar tree_4_3_u07_r4_network.node[34].core_layer 	interests[34] 	12094
scalar tree_4_3_u07_r4_network.node[34].core_layer 	data[34] 	9252
scalar tree_4_3_u07_r4_network.node[34].content_store 	p_hit[34] 	0.23490987266413
scalar tree_4_3_u07_r4_network.node[34].content_store 	hits[34] 	2841
scalar tree_4_3_u07_r4_network.node[34].content_store 	misses[34] 	9253
scalar tree_4_3_u07_r4_network.node[34].content_store 	decision_yes[34] 	100
scalar tree_4_3_u07_r4_network.node[34].content_store 	decision_no[34] 	9152
scalar tree_4_3_u07_r4_network.node[34].content_store 	decision_ratio[34] 	0.010808473843493
scalar tree_4_3_u07_r4_network.node[35].core_layer 	interests[35] 	11908
scalar tree_4_3_u07_r4_network.node[35].core_layer 	data[35] 	9183
scalar tree_4_3_u07_r4_network.node[35].content_store 	p_hit[35] 	0.22875377897212
scalar tree_4_3_u07_r4_network.node[35].content_store 	hits[35] 	2724
scalar tree_4_3_u07_r4_network.node[35].content_store 	misses[35] 	9184
scalar tree_4_3_u07_r4_network.node[35].content_store 	decision_yes[35] 	104
scalar tree_4_3_u07_r4_network.node[35].content_store 	decision_no[35] 	9079
scalar tree_4_3_u07_r4_network.node[35].content_store 	decision_ratio[35] 	0.011325274964609
scalar tree_4_3_u07_r4_network.node[36].core_layer 	interests[36] 	11750
scalar tree_4_3_u07_r4_network.node[36].core_layer 	data[36] 	8936
scalar tree_4_3_u07_r4_network.node[36].content_store 	p_hit[36] 	0.23940425531915
scalar tree_4_3_u07_r4_network.node[36].content_store 	hits[36] 	2813
scalar tree_4_3_u07_r4_network.node[36].content_store 	misses[36] 	8937
scalar tree_4_3_u07_r4_network.node[36].content_store 	decision_yes[36] 	93
scalar tree_4_3_u07_r4_network.node[36].content_store 	decision_no[36] 	8843
scalar tree_4_3_u07_r4_network.node[36].content_store 	decision_ratio[36] 	0.010407341092211
scalar tree_4_3_u07_r4_network.node[37].core_layer 	interests[37] 	12080
scalar tree_4_3_u07_r4_network.node[37].core_layer 	data[37] 	9243
scalar tree_4_3_u07_r4_network.node[37].content_store 	p_hit[37] 	0.23485099337748
scalar tree_4_3_u07_r4_network.node[37].content_store 	hits[37] 	2837
scalar tree_4_3_u07_r4_network.node[37].content_store 	misses[37] 	9243
scalar tree_4_3_u07_r4_network.node[37].content_store 	decision_yes[37] 	90
scalar tree_4_3_u07_r4_network.node[37].content_store 	decision_no[37] 	9153
scalar tree_4_3_u07_r4_network.node[37].content_store 	decision_ratio[37] 	0.0097370983446933
scalar tree_4_3_u07_r4_network.node[38].core_layer 	interests[38] 	11826
scalar tree_4_3_u07_r4_network.node[38].core_layer 	data[38] 	9157
scalar tree_4_3_u07_r4_network.node[38].content_store 	p_hit[38] 	0.22568915947911
scalar tree_4_3_u07_r4_network.node[38].content_store 	hits[38] 	2669
scalar tree_4_3_u07_r4_network.node[38].content_store 	misses[38] 	9157
scalar tree_4_3_u07_r4_network.node[38].content_store 	decision_yes[38] 	77
scalar tree_4_3_u07_r4_network.node[38].content_store 	decision_no[38] 	9080
scalar tree_4_3_u07_r4_network.node[38].content_store 	decision_ratio[38] 	0.0084088675330348
scalar tree_4_3_u07_r4_network.node[39].core_layer 	interests[39] 	11993
scalar tree_4_3_u07_r4_network.node[39].core_layer 	data[39] 	9142
scalar tree_4_3_u07_r4_network.node[39].content_store 	p_hit[39] 	0.23772200450263
scalar tree_4_3_u07_r4_network.node[39].content_store 	hits[39] 	2851
scalar tree_4_3_u07_r4_network.node[39].content_store 	misses[39] 	9142
scalar tree_4_3_u07_r4_network.node[39].content_store 	decision_yes[39] 	91
scalar tree_4_3_u07_r4_network.node[39].content_store 	decision_no[39] 	9051
scalar tree_4_3_u07_r4_network.node[39].content_store 	decision_ratio[39] 	0.0099540581929556
scalar tree_4_3_u07_r4_network.client[13] 	hdistance[13] 	2.8711732583154
scalar tree_4_3_u07_r4_network.client[13] 	downloads[13] 	12086
scalar tree_4_3_u07_r4_network.client[13] 	avg_time[13] 	0.004368688009
scalar tree_4_3_u07_r4_network.client[14] 	hdistance[14] 	2.8486486486487
scalar tree_4_3_u07_r4_network.client[14] 	downloads[14] 	12025
scalar tree_4_3_u07_r4_network.client[14] 	avg_time[14] 	0.004336017743
scalar tree_4_3_u07_r4_network.client[15] 	hdistance[15] 	2.8430183594408
scalar tree_4_3_u07_r4_network.client[15] 	downloads[15] 	11874
scalar tree_4_3_u07_r4_network.client[15] 	avg_time[15] 	0.004326087649
scalar tree_4_3_u07_r4_network.client[16] 	hdistance[16] 	2.8252304050055
scalar tree_4_3_u07_r4_network.client[16] 	downloads[16] 	11827
scalar tree_4_3_u07_r4_network.client[16] 	avg_time[16] 	0.004295422736
scalar tree_4_3_u07_r4_network.client[17] 	hdistance[17] 	2.8413453371836
scalar tree_4_3_u07_r4_network.client[17] 	downloads[17] 	11774
scalar tree_4_3_u07_r4_network.client[17] 	avg_time[17] 	0.004320579656
scalar tree_4_3_u07_r4_network.client[18] 	hdistance[18] 	2.8038838202059
scalar tree_4_3_u07_r4_network.client[18] 	downloads[18] 	11947
scalar tree_4_3_u07_r4_network.client[18] 	avg_time[18] 	0.004263326739
scalar tree_4_3_u07_r4_network.client[19] 	hdistance[19] 	2.8081143148762
scalar tree_4_3_u07_r4_network.client[19] 	downloads[19] 	11757
scalar tree_4_3_u07_r4_network.client[19] 	avg_time[19] 	0.004275917794
scalar tree_4_3_u07_r4_network.client[20] 	hdistance[20] 	2.8698175787728
scalar tree_4_3_u07_r4_network.client[20] 	downloads[20] 	12060
scalar tree_4_3_u07_r4_network.client[20] 	avg_time[20] 	0.004365005263
scalar tree_4_3_u07_r4_network.client[21] 	hdistance[21] 	2.8548752834467
scalar tree_4_3_u07_r4_network.client[21] 	downloads[21] 	11907
scalar tree_4_3_u07_r4_network.client[21] 	avg_time[21] 	0.004344500239
scalar tree_4_3_u07_r4_network.client[22] 	hdistance[22] 	2.8709299405708
scalar tree_4_3_u07_r4_network.client[22] 	downloads[22] 	11947
scalar tree_4_3_u07_r4_network.client[22] 	avg_time[22] 	0.004365946607
scalar tree_4_3_u07_r4_network.client[23] 	hdistance[23] 	2.8582291314633
scalar tree_4_3_u07_r4_network.client[23] 	downloads[23] 	11836
scalar tree_4_3_u07_r4_network.client[23] 	avg_time[23] 	0.004348763551
scalar tree_4_3_u07_r4_network.client[24] 	hdistance[24] 	2.8468744818438
scalar tree_4_3_u07_r4_network.client[24] 	downloads[24] 	12062
scalar tree_4_3_u07_r4_network.client[24] 	avg_time[24] 	0.0043355964
scalar tree_4_3_u07_r4_network.client[25] 	hdistance[25] 	2.8386881415338
scalar tree_4_3_u07_r4_network.client[25] 	downloads[25] 	11983
scalar tree_4_3_u07_r4_network.client[25] 	avg_time[25] 	0.004314000442
scalar tree_4_3_u07_r4_network.client[26] 	hdistance[26] 	2.8461792374979
scalar tree_4_3_u07_r4_network.client[26] 	downloads[26] 	12118
scalar tree_4_3_u07_r4_network.client[26] 	avg_time[26] 	0.004332377535
scalar tree_4_3_u07_r4_network.client[27] 	hdistance[27] 	2.8316956412195
scalar tree_4_3_u07_r4_network.client[27] 	downloads[27] 	11907
scalar tree_4_3_u07_r4_network.client[27] 	avg_time[27] 	0.004313426089
scalar tree_4_3_u07_r4_network.client[28] 	hdistance[28] 	2.8748961621532
scalar tree_4_3_u07_r4_network.client[28] 	downloads[28] 	12038
scalar tree_4_3_u07_r4_network.client[28] 	avg_time[28] 	0.004368995181
scalar tree_4_3_u07_r4_network.client[29] 	hdistance[29] 	2.8568598315998
scalar tree_4_3_u07_r4_network.client[29] 	downloads[29] 	12114
scalar tree_4_3_u07_r4_network.client[29] 	avg_time[29] 	0.004353451243
scalar tree_4_3_u07_r4_network.client[30] 	hdistance[30] 	2.8853605121294
scalar tree_4_3_u07_r4_network.client[30] 	downloads[30] 	11872
scalar tree_4_3_u07_r4_network.client[30] 	avg_time[30] 	0.004392473103
scalar tree_4_3_u07_r4_network.client[31] 	hdistance[31] 	2.8787621152865
scalar tree_4_3_u07_r4_network.client[31] 	downloads[31] 	11762
scalar tree_4_3_u07_r4_network.client[31] 	avg_time[31] 	0.004388196378
scalar tree_4_3_u07_r4_network.client[32] 	hdistance[32] 	2.8487631339456
scalar tree_4_3_u07_r4_network.client[32] 	downloads[32] 	12087
scalar tree_4_3_u07_r4_network.client[32] 	avg_time[32] 	0.004334985616
scalar tree_4_3_u07_r4_network.client[33] 	hdistance[33] 	2.8095478231636
scalar tree_4_3_u07_r4_network.client[33] 	downloads[33] 	11898
scalar tree_4_3_u07_r4_network.client[33] 	avg_time[33] 	0.004276177898
scalar tree_4_3_u07_r4_network.client[34] 	hdistance[34] 	2.8760439923923
scalar tree_4_3_u07_r4_network.client[34] 	downloads[34] 	12093
scalar tree_4_3_u07_r4_network.client[34] 	avg_time[34] 	0.004378772934
scalar tree_4_3_u07_r4_network.client[35] 	hdistance[35] 	2.8869572520366
scalar tree_4_3_u07_r4_network.client[35] 	downloads[35] 	11907
scalar tree_4_3_u07_r4_network.client[35] 	avg_time[35] 	0.00439543838
scalar tree_4_3_u07_r4_network.client[36] 	hdistance[36] 	2.8585411524385
scalar tree_4_3_u07_r4_network.client[36] 	downloads[36] 	11749
scalar tree_4_3_u07_r4_network.client[36] 	avg_time[36] 	0.004348437817
scalar tree_4_3_u07_r4_network.client[37] 	hdistance[37] 	2.8820364238411
scalar tree_4_3_u07_r4_network.client[37] 	downloads[37] 	12080
scalar tree_4_3_u07_r4_network.client[37] 	avg_time[37] 	0.004388076437
scalar tree_4_3_u07_r4_network.client[38] 	hdistance[38] 	2.8767968882124
scalar tree_4_3_u07_r4_network.client[38] 	downloads[38] 	11826
scalar tree_4_3_u07_r4_network.client[38] 	avg_time[38] 	0.004386433708
scalar tree_4_3_u07_r4_network.client[39] 	hdistance[39] 	2.8459101142333
scalar tree_4_3_u07_r4_network.client[39] 	downloads[39] 	11993
scalar tree_4_3_u07_r4_network.client[39] 	avg_time[39] 	0.004338027518
