version 2
run General-157-20160820-00:13:23-9589
attr a 0.9
attr cd fix0.01
attr configname General
attr cr lru
attr datetime 20160820-00:13:23
attr experiment General
attr fsize 1
attr inifile hw5115/scenario_A/SPR-FIX0.01.ini
attr iterationvars "$name=tree_4_3, $un=07, $rep=18, $cd=fix0.01, $cr=lru, $fsize=1, $a=0.9, $sl=spr, $ttl=1000, $variance=0.05"
attr iterationvars2 "$name=tree_4_3, $un=07, $rep=18, $cd=fix0.01, $cr=lru, $fsize=1, $a=0.9, $sl=spr, $ttl=1000, $variance=0.05, $repetition=0"
attr measurement "$name=tree_4_3, $un=07, $rep=18, $cd=fix0.01, $cr=lru, $fsize=1, $a=0.9, $sl=spr, $ttl=1000, $variance=0.05"
attr name tree_4_3
attr network networks.${name}_u${un}_r${rep}_network
attr processid 9589
attr rep 18
attr repetition 0
attr replication #0
attr resultdir results
attr runnumber 157
attr seedset 18
attr sl spr
attr ttl 1000
attr un 07
attr variance 0.05

scalar . 	a 	0.9
scalar . 	fsize 	1
scalar . 	rep 	18
scalar . 	ttl 	1000
scalar . 	un 	07
scalar . 	variance 	0.05
scalar tree_4_3_u07_r18_network.content_distribution 	repo-0 	0
scalar tree_4_3_u07_r18_network.content_distribution 	client-0 	13
scalar tree_4_3_u07_r18_network.content_distribution 	client-1 	14
scalar tree_4_3_u07_r18_network.content_distribution 	client-2 	15
scalar tree_4_3_u07_r18_network.content_distribution 	client-3 	16
scalar tree_4_3_u07_r18_network.content_distribution 	client-4 	17
scalar tree_4_3_u07_r18_network.content_distribution 	client-5 	18
scalar tree_4_3_u07_r18_network.content_distribution 	client-6 	19
scalar tree_4_3_u07_r18_network.content_distribution 	client-7 	20
scalar tree_4_3_u07_r18_network.content_distribution 	client-8 	21
scalar tree_4_3_u07_r18_network.content_distribution 	client-9 	22
scalar tree_4_3_u07_r18_network.content_distribution 	client-10 	23
scalar tree_4_3_u07_r18_network.content_distribution 	client-11 	24
scalar tree_4_3_u07_r18_network.content_distribution 	client-12 	25
scalar tree_4_3_u07_r18_network.content_distribution 	client-13 	26
scalar tree_4_3_u07_r18_network.content_distribution 	client-14 	27
scalar tree_4_3_u07_r18_network.content_distribution 	client-15 	28
scalar tree_4_3_u07_r18_network.content_distribution 	client-16 	29
scalar tree_4_3_u07_r18_network.content_distribution 	client-17 	30
scalar tree_4_3_u07_r18_network.content_distribution 	client-18 	31
scalar tree_4_3_u07_r18_network.content_distribution 	client-19 	32
scalar tree_4_3_u07_r18_network.content_distribution 	client-20 	33
scalar tree_4_3_u07_r18_network.content_distribution 	client-21 	34
scalar tree_4_3_u07_r18_network.content_distribution 	client-22 	35
scalar tree_4_3_u07_r18_network.content_distribution 	client-23 	36
scalar tree_4_3_u07_r18_network.content_distribution 	client-24 	37
scalar tree_4_3_u07_r18_network.content_distribution 	client-25 	38
scalar tree_4_3_u07_r18_network.content_distribution 	client-26 	39
scalar tree_4_3_u07_r18_network.content_distribution 	repo-0_card 	100000
scalar tree_4_3_u07_r18_network.content_distribution 	repo-0_price 	0
scalar tree_4_3_u07_r18_network.statistics 	stabilization_time 	2868.6
scalar tree_4_3_u07_r18_network.statistics 	p_hit 	0.18040444138407
scalar tree_4_3_u07_r18_network.statistics 	interests 	25591.875
scalar tree_4_3_u07_r18_network.statistics 	data 	17506.125
scalar tree_4_3_u07_r18_network.statistics 	hdistance 	2.846503289538
scalar tree_4_3_u07_r18_network.statistics 	avg_time 	0.004330356483
scalar tree_4_3_u07_r18_network.statistics 	downloads 	323422
scalar tree_4_3_u07_r18_network.statistics 	total_cost 	0
scalar tree_4_3_u07_r18_network.statistics 	total_replicas 	100000
scalar tree_4_3_u07_r18_network.statistics 	inner_hit 	0.31877856175523
scalar tree_4_3_u07_r18_network.node[0].core_layer 	interests[0] 	225008
scalar tree_4_3_u07_r18_network.node[0].core_layer 	repo_load[0] 	220322
scalar tree_4_3_u07_r18_network.node[0].core_layer 	data[0] 	0
scalar tree_4_3_u07_r18_network.node[0].core_layer 	repo_int[0] 	220322
scalar tree_4_3_u07_r18_network.node[0].content_store 	p_hit[0] 	0.020825926189291
scalar tree_4_3_u07_r18_network.node[0].content_store 	hits[0] 	4686
scalar tree_4_3_u07_r18_network.node[0].content_store 	misses[0] 	220322
scalar tree_4_3_u07_r18_network.node[0].content_store 	decision_yes[0] 	2191
scalar tree_4_3_u07_r18_network.node[0].content_store 	decision_no[0] 	218131
scalar tree_4_3_u07_r18_network.node[0].content_store 	decision_ratio[0] 	0.0099445357249843
scalar tree_4_3_u07_r18_network.node[1].core_layer 	interests[1] 	145493
scalar tree_4_3_u07_r18_network.node[1].core_layer 	data[1] 	141693
scalar tree_4_3_u07_r18_network.node[1].content_store 	p_hit[1] 	0.026069982748311
scalar tree_4_3_u07_r18_network.node[1].content_store 	hits[1] 	3793
scalar tree_4_3_u07_r18_network.node[1].content_store 	misses[1] 	141700
scalar tree_4_3_u07_r18_network.node[1].content_store 	decision_yes[1] 	1416
scalar tree_4_3_u07_r18_network.node[1].content_store 	decision_no[1] 	140277
scalar tree_4_3_u07_r18_network.node[1].content_store 	decision_ratio[1] 	0.0099934365141538
scalar tree_4_3_u07_r18_network.node[2].core_layer 	interests[2] 	77262
scalar tree_4_3_u07_r18_network.node[2].core_layer 	data[2] 	75045
scalar tree_4_3_u07_r18_network.node[2].content_store 	p_hit[2] 	0.028668685770495
scalar tree_4_3_u07_r18_network.node[2].content_store 	hits[2] 	2215
scalar tree_4_3_u07_r18_network.node[2].content_store 	misses[2] 	75047
scalar tree_4_3_u07_r18_network.node[2].content_store 	decision_yes[2] 	758
scalar tree_4_3_u07_r18_network.node[2].content_store 	decision_no[2] 	74287
scalar tree_4_3_u07_r18_network.node[2].content_store 	decision_ratio[2] 	0.010100606302885
scalar tree_4_3_u07_r18_network.node[3].core_layer 	interests[3] 	8494
scalar tree_4_3_u07_r18_network.node[3].core_layer 	data[3] 	8270
scalar tree_4_3_u07_r18_network.node[3].content_store 	p_hit[3] 	0.026371556392748
scalar tree_4_3_u07_r18_network.node[3].content_store 	hits[3] 	224
scalar tree_4_3_u07_r18_network.node[3].content_store 	misses[3] 	8270
scalar tree_4_3_u07_r18_network.node[3].content_store 	decision_yes[3] 	86
scalar tree_4_3_u07_r18_network.node[3].content_store 	decision_no[3] 	8184
scalar tree_4_3_u07_r18_network.node[3].content_store 	decision_ratio[3] 	0.010399032648126
scalar tree_4_3_u07_r18_network.node[4].core_layer 	interests[4] 	35932
scalar tree_4_3_u07_r18_network.node[4].core_layer 	data[4] 	34269
scalar tree_4_3_u07_r18_network.node[4].content_store 	p_hit[4] 	0.04628186574641
scalar tree_4_3_u07_r18_network.node[4].content_store 	hits[4] 	1663
scalar tree_4_3_u07_r18_network.node[4].content_store 	misses[4] 	34269
scalar tree_4_3_u07_r18_network.node[4].content_store 	decision_yes[4] 	356
scalar tree_4_3_u07_r18_network.node[4].content_store 	decision_no[4] 	33913
scalar tree_4_3_u07_r18_network.node[4].content_store 	decision_ratio[4] 	0.010388397677201
scalar tree_4_3_u07_r18_network.node[5].core_layer 	interests[5] 	35971
scalar tree_4_3_u07_r18_network.node[5].core_layer 	data[5] 	34178
scalar tree_4_3_u07_r18_network.node[5].content_store 	p_hit[5] 	0.049817908871035
scalar tree_4_3_u07_r18_network.node[5].content_store 	hits[5] 	1792
scalar tree_4_3_u07_r18_network.node[5].content_store 	misses[5] 	34179
scalar tree_4_3_u07_r18_network.node[5].content_store 	decision_yes[5] 	338
scalar tree_4_3_u07_r18_network.node[5].content_store 	decision_no[5] 	33840
scalar tree_4_3_u07_r18_network.node[5].content_store 	decision_ratio[5] 	0.0098894025396454
scalar tree_4_3_u07_r18_network.node[6].core_layer 	interests[6] 	9191
scalar tree_4_3_u07_r18_network.node[6].core_layer 	data[6] 	8667
scalar tree_4_3_u07_r18_network.node[6].content_store 	p_hit[6] 	0.057012294636057
scalar tree_4_3_u07_r18_network.node[6].content_store 	hits[6] 	524
scalar tree_4_3_u07_r18_network.node[6].content_store 	misses[6] 	8667
scalar tree_4_3_u07_r18_network.node[6].content_store 	decision_yes[6] 	86
scalar tree_4_3_u07_r18_network.node[6].content_store 	decision_no[6] 	8581
scalar tree_4_3_u07_r18_network.node[6].content_store 	decision_ratio[6] 	0.0099226952809507
scalar tree_4_3_u07_r18_network.node[7].core_layer 	interests[7] 	36129
scalar tree_4_3_u07_r18_network.node[7].core_layer 	data[7] 	34393
scalar tree_4_3_u07_r18_network.node[7].content_store 	p_hit[7] 	0.048022364305682
scalar tree_4_3_u07_r18_network.node[7].content_store 	hits[7] 	1735
scalar tree_4_3_u07_r18_network.node[7].content_store 	misses[7] 	34394
scalar tree_4_3_u07_r18_network.node[7].content_store 	decision_yes[7] 	342
scalar tree_4_3_u07_r18_network.node[7].content_store 	decision_no[7] 	34051
scalar tree_4_3_u07_r18_network.node[7].content_store 	decision_ratio[7] 	0.0099438839298694
scalar tree_4_3_u07_r18_network.node[8].core_layer 	interests[8] 	27720
scalar tree_4_3_u07_r18_network.node[8].core_layer 	data[8] 	26112
scalar tree_4_3_u07_r18_network.node[8].content_store 	p_hit[8] 	0.058008658008658
scalar tree_4_3_u07_r18_network.node[8].content_store 	hits[8] 	1608
scalar tree_4_3_u07_r18_network.node[8].content_store 	misses[8] 	26112
scalar tree_4_3_u07_r18_network.node[8].content_store 	decision_yes[8] 	286
scalar tree_4_3_u07_r18_network.node[8].content_store 	decision_no[8] 	25826
scalar tree_4_3_u07_r18_network.node[8].content_store 	decision_ratio[8] 	0.010952818627451
scalar tree_4_3_u07_r18_network.node[9].core_layer 	interests[9] 	18350
scalar tree_4_3_u07_r18_network.node[9].core_layer 	data[9] 	17203
scalar tree_4_3_u07_r18_network.node[9].content_store 	p_hit[9] 	0.062506811989101
scalar tree_4_3_u07_r18_network.node[9].content_store 	hits[9] 	1147
scalar tree_4_3_u07_r18_network.node[9].content_store 	misses[9] 	17203
scalar tree_4_3_u07_r18_network.node[9].content_store 	decision_yes[9] 	179
scalar tree_4_3_u07_r18_network.node[9].content_store 	decision_no[9] 	17024
scalar tree_4_3_u07_r18_network.node[9].content_store 	decision_ratio[9] 	0.010405161890368
scalar tree_4_3_u07_r18_network.node[10].core_layer 	interests[10] 	35942
scalar tree_4_3_u07_r18_network.node[10].core_layer 	data[10] 	33986
scalar tree_4_3_u07_r18_network.node[10].content_store 	p_hit[10] 	0.054393189026765
scalar tree_4_3_u07_r18_network.node[10].content_store 	hits[10] 	1955
scalar tree_4_3_u07_r18_network.node[10].content_store 	misses[10] 	33987
scalar tree_4_3_u07_r18_network.node[10].content_store 	decision_yes[10] 	373
scalar tree_4_3_u07_r18_network.node[10].content_store 	decision_no[10] 	33613
scalar tree_4_3_u07_r18_network.node[10].content_store 	decision_ratio[10] 	0.010975107397164
scalar tree_4_3_u07_r18_network.node[11].core_layer 	interests[11] 	35746
scalar tree_4_3_u07_r18_network.node[11].core_layer 	data[11] 	33947
scalar tree_4_3_u07_r18_network.node[11].content_store 	p_hit[11] 	0.050299334191238
scalar tree_4_3_u07_r18_network.node[11].content_store 	hits[11] 	1798
scalar tree_4_3_u07_r18_network.node[11].content_store 	misses[11] 	33948
scalar tree_4_3_u07_r18_network.node[11].content_store 	decision_yes[11] 	310
scalar tree_4_3_u07_r18_network.node[11].content_store 	decision_no[11] 	33637
scalar tree_4_3_u07_r18_network.node[11].content_store 	decision_ratio[11] 	0.0091318820514331
scalar tree_4_3_u07_r18_network.node[12].core_layer 	interests[12] 	9008
scalar tree_4_3_u07_r18_network.node[12].core_layer 	data[12] 	8494
scalar tree_4_3_u07_r18_network.node[12].content_store 	p_hit[12] 	0.057060390763766
scalar tree_4_3_u07_r18_network.node[12].content_store 	hits[12] 	514
scalar tree_4_3_u07_r18_network.node[12].content_store 	misses[12] 	8494
scalar tree_4_3_u07_r18_network.node[12].content_store 	decision_yes[12] 	92
scalar tree_4_3_u07_r18_network.node[12].content_store 	decision_no[12] 	8402
scalar tree_4_3_u07_r18_network.node[12].content_store 	decision_ratio[12] 	0.010831174947021
scalar tree_4_3_u07_r18_network.node[13].core_layer 	interests[13] 	11881
scalar tree_4_3_u07_r18_network.node[13].core_layer 	data[13] 	9038
scalar tree_4_3_u07_r18_network.node[13].content_store 	p_hit[13] 	0.23928962208568
scalar tree_4_3_u07_r18_network.node[13].content_store 	hits[13] 	2843
scalar tree_4_3_u07_r18_network.node[13].content_store 	misses[13] 	9038
scalar tree_4_3_u07_r18_network.node[13].content_store 	decision_yes[13] 	105
scalar tree_4_3_u07_r18_network.node[13].content_store 	decision_no[13] 	8933
scalar tree_4_3_u07_r18_network.node[13].content_store 	decision_ratio[13] 	0.011617614516486
scalar tree_4_3_u07_r18_network.node[14].core_layer 	interests[14] 	12074
scalar tree_4_3_u07_r18_network.node[14].core_layer 	data[14] 	8987
scalar tree_4_3_u07_r18_network.node[14].content_store 	p_hit[14] 	0.25567334768925
scalar tree_4_3_u07_r18_network.node[14].content_store 	hits[14] 	3087
scalar tree_4_3_u07_r18_network.node[14].content_store 	misses[14] 	8987
scalar tree_4_3_u07_r18_network.node[14].content_store 	decision_yes[14] 	101
scalar tree_4_3_u07_r18_network.node[14].content_store 	decision_no[14] 	8886
scalar tree_4_3_u07_r18_network.node[14].content_store 	decision_ratio[14] 	0.011238455546901
scalar tree_4_3_u07_r18_network.node[15].core_layer 	interests[15] 	11825
scalar tree_4_3_u07_r18_network.node[15].core_layer 	data[15] 	8998
scalar tree_4_3_u07_r18_network.node[15].content_store 	p_hit[15] 	0.23906976744186
scalar tree_4_3_u07_r18_network.node[15].content_store 	hits[15] 	2827
scalar tree_4_3_u07_r18_network.node[15].content_store 	misses[15] 	8998
scalar tree_4_3_u07_r18_network.node[15].content_store 	decision_yes[15] 	81
scalar tree_4_3_u07_r18_network.node[15].content_store 	decision_no[15] 	8917
scalar tree_4_3_u07_r18_network.node[15].content_store 	decision_ratio[15] 	0.0090020004445432
scalar tree_4_3_u07_r18_network.node[16].core_layer 	interests[16] 	11902
scalar tree_4_3_u07_r18_network.node[16].core_layer 	data[16] 	8937
scalar tree_4_3_u07_r18_network.node[16].content_store 	p_hit[16] 	0.24903377583599
scalar tree_4_3_u07_r18_network.node[16].content_store 	hits[16] 	2964
scalar tree_4_3_u07_r18_network.node[16].content_store 	misses[16] 	8938
scalar tree_4_3_u07_r18_network.node[16].content_store 	decision_yes[16] 	98
scalar tree_4_3_u07_r18_network.node[16].content_store 	decision_no[16] 	8839
scalar tree_4_3_u07_r18_network.node[16].content_store 	decision_ratio[16] 	0.010965648427884
scalar tree_4_3_u07_r18_network.node[17].core_layer 	interests[17] 	12096
scalar tree_4_3_u07_r18_network.node[17].core_layer 	data[17] 	9038
scalar tree_4_3_u07_r18_network.node[17].content_store 	p_hit[17] 	0.25281084656085
scalar tree_4_3_u07_r18_network.node[17].content_store 	hits[17] 	3058
scalar tree_4_3_u07_r18_network.node[17].content_store 	misses[17] 	9038
scalar tree_4_3_u07_r18_network.node[17].content_store 	decision_yes[17] 	96
scalar tree_4_3_u07_r18_network.node[17].content_store 	decision_no[17] 	8942
scalar tree_4_3_u07_r18_network.node[17].content_store 	decision_ratio[17] 	0.010621818986501
scalar tree_4_3_u07_r18_network.node[18].core_layer 	interests[18] 	11717
scalar tree_4_3_u07_r18_network.node[18].core_layer 	data[18] 	8880
scalar tree_4_3_u07_r18_network.node[18].content_store 	p_hit[18] 	0.24212682427242
scalar tree_4_3_u07_r18_network.node[18].content_store 	hits[18] 	2837
scalar tree_4_3_u07_r18_network.node[18].content_store 	misses[18] 	8880
scalar tree_4_3_u07_r18_network.node[18].content_store 	decision_yes[18] 	84
scalar tree_4_3_u07_r18_network.node[18].content_store 	decision_no[18] 	8796
scalar tree_4_3_u07_r18_network.node[18].content_store 	decision_ratio[18] 	0.0094594594594595
scalar tree_4_3_u07_r18_network.node[19].core_layer 	interests[19] 	11857
scalar tree_4_3_u07_r18_network.node[19].core_layer 	data[19] 	8909
scalar tree_4_3_u07_r18_network.node[19].content_store 	p_hit[19] 	0.24862950156026
scalar tree_4_3_u07_r18_network.node[19].content_store 	hits[19] 	2948
scalar tree_4_3_u07_r18_network.node[19].content_store 	misses[19] 	8909
scalar tree_4_3_u07_r18_network.node[19].content_store 	decision_yes[19] 	90
scalar tree_4_3_u07_r18_network.node[19].content_store 	decision_no[19] 	8819
scalar tree_4_3_u07_r18_network.node[19].content_store 	decision_ratio[19] 	0.010102143899428
scalar tree_4_3_u07_r18_network.node[20].core_layer 	interests[20] 	12038
scalar tree_4_3_u07_r18_network.node[20].core_layer 	data[20] 	9116
scalar tree_4_3_u07_r18_network.node[20].content_store 	p_hit[20] 	0.24273135072271
scalar tree_4_3_u07_r18_network.node[20].content_store 	hits[20] 	2922
scalar tree_4_3_u07_r18_network.node[20].content_store 	misses[20] 	9116
scalar tree_4_3_u07_r18_network.node[20].content_store 	decision_yes[20] 	76
scalar tree_4_3_u07_r18_network.node[20].content_store 	decision_no[20] 	9040
scalar tree_4_3_u07_r18_network.node[20].content_store 	decision_ratio[20] 	0.0083369899078543
scalar tree_4_3_u07_r18_network.node[21].core_layer 	interests[21] 	12206
scalar tree_4_3_u07_r18_network.node[21].core_layer 	data[21] 	9191
scalar tree_4_3_u07_r18_network.node[21].content_store 	p_hit[21] 	0.24692774045551
scalar tree_4_3_u07_r18_network.node[21].content_store 	hits[21] 	3014
scalar tree_4_3_u07_r18_network.node[21].content_store 	misses[21] 	9192
scalar tree_4_3_u07_r18_network.node[21].content_store 	decision_yes[21] 	102
scalar tree_4_3_u07_r18_network.node[21].content_store 	decision_no[21] 	9089
scalar tree_4_3_u07_r18_network.node[21].content_store 	decision_ratio[21] 	0.011097813078011
scalar tree_4_3_u07_r18_network.node[22].core_layer 	interests[22] 	12173
scalar tree_4_3_u07_r18_network.node[22].core_layer 	data[22] 	9215
scalar tree_4_3_u07_r18_network.node[22].content_store 	p_hit[22] 	0.24291464716997
scalar tree_4_3_u07_r18_network.node[22].content_store 	hits[22] 	2957
scalar tree_4_3_u07_r18_network.node[22].content_store 	misses[22] 	9216
scalar tree_4_3_u07_r18_network.node[22].content_store 	decision_yes[22] 	90
scalar tree_4_3_u07_r18_network.node[22].content_store 	decision_no[22] 	9125
scalar tree_4_3_u07_r18_network.node[22].content_store 	decision_ratio[22] 	0.0097666847531199
scalar tree_4_3_u07_r18_network.node[23].core_layer 	interests[23] 	12016
scalar tree_4_3_u07_r18_network.node[23].core_layer 	data[23] 	9016
scalar tree_4_3_u07_r18_network.node[23].content_store 	p_hit[23] 	0.24966711051931
scalar tree_4_3_u07_r18_network.node[23].content_store 	hits[23] 	3000
scalar tree_4_3_u07_r18_network.node[23].content_store 	misses[23] 	9016
scalar tree_4_3_u07_r18_network.node[23].content_store 	decision_yes[23] 	95
scalar tree_4_3_u07_r18_network.node[23].content_store 	decision_no[23] 	8921
scalar tree_4_3_u07_r18_network.node[23].content_store 	decision_ratio[23] 	0.010536823425022
scalar tree_4_3_u07_r18_network.node[24].core_layer 	interests[24] 	11909
scalar tree_4_3_u07_r18_network.node[24].core_layer 	data[24] 	9007
scalar tree_4_3_u07_r18_network.node[24].content_store 	p_hit[24] 	0.2435133092619
scalar tree_4_3_u07_r18_network.node[24].content_store 	hits[24] 	2900
scalar tree_4_3_u07_r18_network.node[24].content_store 	misses[24] 	9009
scalar tree_4_3_u07_r18_network.node[24].content_store 	decision_yes[24] 	86
scalar tree_4_3_u07_r18_network.node[24].content_store 	decision_no[24] 	8921
scalar tree_4_3_u07_r18_network.node[24].content_store 	decision_ratio[24] 	0.0095481292328189
scalar tree_4_3_u07_r18_network.node[25].core_layer 	interests[25] 	11960
scalar tree_4_3_u07_r18_network.node[25].core_layer 	data[25] 	8890
scalar tree_4_3_u07_r18_network.node[25].content_store 	p_hit[25] 	0.2566889632107
scalar tree_4_3_u07_r18_network.node[25].content_store 	hits[25] 	3070
scalar tree_4_3_u07_r18_network.node[25].content_store 	misses[25] 	8890
scalar tree_4_3_u07_r18_network.node[25].content_store 	decision_yes[25] 	82
scalar tree_4_3_u07_r18_network.node[25].content_store 	decision_no[25] 	8808
scalar tree_4_3_u07_r18_network.node[25].content_store 	decision_ratio[25] 	0.0092238470191226
scalar tree_4_3_u07_r18_network.node[26].core_layer 	interests[26] 	12138
scalar tree_4_3_u07_r18_network.node[26].core_layer 	data[26] 	9258
scalar tree_4_3_u07_r18_network.node[26].content_store 	p_hit[26] 	0.23727137913989
scalar tree_4_3_u07_r18_network.node[26].content_store 	hits[26] 	2880
scalar tree_4_3_u07_r18_network.node[26].content_store 	misses[26] 	9258
scalar tree_4_3_u07_r18_network.node[26].content_store 	decision_yes[26] 	93
scalar tree_4_3_u07_r18_network.node[26].content_store 	decision_no[26] 	9165
scalar tree_4_3_u07_r18_network.node[26].content_store 	decision_ratio[26] 	0.010045366169799
scalar tree_4_3_u07_r18_network.node[27].core_layer 	interests[27] 	12075
scalar tree_4_3_u07_r18_network.node[27].core_layer 	data[27] 	9270
scalar tree_4_3_u07_r18_network.node[27].content_store 	p_hit[27] 	0.23221532091097
scalar tree_4_3_u07_r18_network.node[27].content_store 	hits[27] 	2804
scalar tree_4_3_u07_r18_network.node[27].content_store 	misses[27] 	9271
scalar tree_4_3_u07_r18_network.node[27].content_store 	decision_yes[27] 	75
scalar tree_4_3_u07_r18_network.node[27].content_store 	decision_no[27] 	9195
scalar tree_4_3_u07_r18_network.node[27].content_store 	decision_ratio[27] 	0.0080906148867314
scalar tree_4_3_u07_r18_network.node[28].core_layer 	interests[28] 	12191
scalar tree_4_3_u07_r18_network.node[28].core_layer 	data[28] 	9251
scalar tree_4_3_u07_r18_network.node[28].content_store 	p_hit[28] 	0.24116151259126
scalar tree_4_3_u07_r18_network.node[28].content_store 	hits[28] 	2940
scalar tree_4_3_u07_r18_network.node[28].content_store 	misses[28] 	9251
scalar tree_4_3_u07_r18_network.node[28].content_store 	decision_yes[28] 	113
scalar tree_4_3_u07_r18_network.node[28].content_store 	decision_no[28] 	9138
scalar tree_4_3_u07_r18_network.node[28].content_store 	decision_ratio[28] 	0.012214895686953
scalar tree_4_3_u07_r18_network.node[29].core_layer 	interests[29] 	12117
scalar tree_4_3_u07_r18_network.node[29].core_layer 	data[29] 	9192
scalar tree_4_3_u07_r18_network.node[29].content_store 	p_hit[29] 	0.24139638524387
scalar tree_4_3_u07_r18_network.node[29].content_store 	hits[29] 	2925
scalar tree_4_3_u07_r18_network.node[29].content_store 	misses[29] 	9192
scalar tree_4_3_u07_r18_network.node[29].content_store 	decision_yes[29] 	94
scalar tree_4_3_u07_r18_network.node[29].content_store 	decision_no[29] 	9098
scalar tree_4_3_u07_r18_network.node[29].content_store 	decision_ratio[29] 	0.010226283724978
scalar tree_4_3_u07_r18_network.node[30].core_layer 	interests[30] 	11986
scalar tree_4_3_u07_r18_network.node[30].core_layer 	data[30] 	9099
scalar tree_4_3_u07_r18_network.node[30].content_store 	p_hit[30] 	0.24086434173202
scalar tree_4_3_u07_r18_network.node[30].content_store 	hits[30] 	2887
scalar tree_4_3_u07_r18_network.node[30].content_store 	misses[30] 	9099
scalar tree_4_3_u07_r18_network.node[30].content_store 	decision_yes[30] 	106
scalar tree_4_3_u07_r18_network.node[30].content_store 	decision_no[30] 	8993
scalar tree_4_3_u07_r18_network.node[30].content_store 	decision_ratio[30] 	0.011649631827673
scalar tree_4_3_u07_r18_network.node[31].core_layer 	interests[31] 	11832
scalar tree_4_3_u07_r18_network.node[31].core_layer 	data[31] 	9026
scalar tree_4_3_u07_r18_network.node[31].content_store 	p_hit[31] 	0.23715348208249
scalar tree_4_3_u07_r18_network.node[31].content_store 	hits[31] 	2806
scalar tree_4_3_u07_r18_network.node[31].content_store 	misses[31] 	9026
scalar tree_4_3_u07_r18_network.node[31].content_store 	decision_yes[31] 	94
scalar tree_4_3_u07_r18_network.node[31].content_store 	decision_no[31] 	8932
scalar tree_4_3_u07_r18_network.node[31].content_store 	decision_ratio[31] 	0.010414358519832
scalar tree_4_3_u07_r18_network.node[32].core_layer 	interests[32] 	12089
scalar tree_4_3_u07_r18_network.node[32].core_layer 	data[32] 	8940
scalar tree_4_3_u07_r18_network.node[32].content_store 	p_hit[32] 	0.26048473819174
scalar tree_4_3_u07_r18_network.node[32].content_store 	hits[32] 	3149
scalar tree_4_3_u07_r18_network.node[32].content_store 	misses[32] 	8940
scalar tree_4_3_u07_r18_network.node[32].content_store 	decision_yes[32] 	83
scalar tree_4_3_u07_r18_network.node[32].content_store 	decision_no[32] 	8857
scalar tree_4_3_u07_r18_network.node[32].content_store 	decision_ratio[32] 	0.0092841163310962
scalar tree_4_3_u07_r18_network.node[33].core_layer 	interests[33] 	11766
scalar tree_4_3_u07_r18_network.node[33].core_layer 	data[33] 	9085
scalar tree_4_3_u07_r18_network.node[33].content_store 	p_hit[33] 	0.22785993540711
scalar tree_4_3_u07_r18_network.node[33].content_store 	hits[33] 	2681
scalar tree_4_3_u07_r18_network.node[33].content_store 	misses[33] 	9085
scalar tree_4_3_u07_r18_network.node[33].content_store 	decision_yes[33] 	87
scalar tree_4_3_u07_r18_network.node[33].content_store 	decision_no[33] 	8998
scalar tree_4_3_u07_r18_network.node[33].content_store 	decision_ratio[33] 	0.0095762245459549
scalar tree_4_3_u07_r18_network.node[34].core_layer 	interests[34] 	11993
scalar tree_4_3_u07_r18_network.node[34].core_layer 	data[34] 	8928
scalar tree_4_3_u07_r18_network.node[34].content_store 	p_hit[34] 	0.25548236471275
scalar tree_4_3_u07_r18_network.node[34].content_store 	hits[34] 	3064
scalar tree_4_3_u07_r18_network.node[34].content_store 	misses[34] 	8929
scalar tree_4_3_u07_r18_network.node[34].content_store 	decision_yes[34] 	98
scalar tree_4_3_u07_r18_network.node[34].content_store 	decision_no[34] 	8830
scalar tree_4_3_u07_r18_network.node[34].content_store 	decision_ratio[34] 	0.010976702508961
scalar tree_4_3_u07_r18_network.node[35].core_layer 	interests[35] 	12086
scalar tree_4_3_u07_r18_network.node[35].core_layer 	data[35] 	9085
scalar tree_4_3_u07_r18_network.node[35].content_store 	p_hit[35] 	0.24830382260467
scalar tree_4_3_u07_r18_network.node[35].content_store 	hits[35] 	3001
scalar tree_4_3_u07_r18_network.node[35].content_store 	misses[35] 	9085
scalar tree_4_3_u07_r18_network.node[35].content_store 	decision_yes[35] 	94
scalar tree_4_3_u07_r18_network.node[35].content_store 	decision_no[35] 	8991
scalar tree_4_3_u07_r18_network.node[35].content_store 	decision_ratio[35] 	0.010346725371491
scalar tree_4_3_u07_r18_network.node[36].core_layer 	interests[36] 	11833
scalar tree_4_3_u07_r18_network.node[36].core_layer 	data[36] 	8827
scalar tree_4_3_u07_r18_network.node[36].content_store 	p_hit[36] 	0.25403532493873
scalar tree_4_3_u07_r18_network.node[36].content_store 	hits[36] 	3006
scalar tree_4_3_u07_r18_network.node[36].content_store 	misses[36] 	8827
scalar tree_4_3_u07_r18_network.node[36].content_store 	decision_yes[36] 	89
scalar tree_4_3_u07_r18_network.node[36].content_store 	decision_no[36] 	8738
scalar tree_4_3_u07_r18_network.node[36].content_store 	decision_ratio[36] 	0.01008270080435
scalar tree_4_3_u07_r18_network.node[37].core_layer 	interests[37] 	11844
scalar tree_4_3_u07_r18_network.node[37].core_layer 	data[37] 	8891
scalar tree_4_3_u07_r18_network.node[37].content_store 	p_hit[37] 	0.24932455251604
scalar tree_4_3_u07_r18_network.node[37].content_store 	hits[37] 	2953
scalar tree_4_3_u07_r18_network.node[37].content_store 	misses[37] 	8891
scalar tree_4_3_u07_r18_network.node[37].content_store 	decision_yes[37] 	94
scalar tree_4_3_u07_r18_network.node[37].content_store 	decision_no[37] 	8797
scalar tree_4_3_u07_r18_network.node[37].content_store 	decision_ratio[37] 	0.010572489033854
scalar tree_4_3_u07_r18_network.node[38].core_layer 	interests[38] 	11857
scalar tree_4_3_u07_r18_network.node[38].core_layer 	data[38] 	8906
scalar tree_4_3_u07_r18_network.node[38].content_store 	p_hit[38] 	0.24888251665683
scalar tree_4_3_u07_r18_network.node[38].content_store 	hits[38] 	2951
scalar tree_4_3_u07_r18_network.node[38].content_store 	misses[38] 	8906
scalar tree_4_3_u07_r18_network.node[38].content_store 	decision_yes[38] 	98
scalar tree_4_3_u07_r18_network.node[38].content_store 	decision_no[38] 	8808
scalar tree_4_3_u07_r18_network.node[38].content_store 	decision_ratio[38] 	0.011003817651022
scalar tree_4_3_u07_r18_network.node[39].core_layer 	interests[39] 	11968
scalar tree_4_3_u07_r18_network.node[39].core_layer 	data[39] 	9008
scalar tree_4_3_u07_r18_network.node[39].content_store 	p_hit[39] 	0.24732620320856
scalar tree_4_3_u07_r18_network.node[39].content_store 	hits[39] 	2960
scalar tree_4_3_u07_r18_network.node[39].content_store 	misses[39] 	9008
scalar tree_4_3_u07_r18_network.node[39].content_store 	decision_yes[39] 	96
scalar tree_4_3_u07_r18_network.node[39].content_store 	decision_no[39] 	8912
scalar tree_4_3_u07_r18_network.node[39].content_store 	decision_ratio[39] 	0.010657193605684
scalar tree_4_3_u07_r18_network.client[13] 	hdistance[13] 	2.8988300648094
scalar tree_4_3_u07_r18_network.client[13] 	downloads[13] 	11881
scalar tree_4_3_u07_r18_network.client[13] 	avg_time[13] 	0.004404676771
scalar tree_4_3_u07_r18_network.client[14] 	hdistance[14] 	2.817044889846
scalar tree_4_3_u07_r18_network.client[14] 	downloads[14] 	12074
scalar tree_4_3_u07_r18_network.client[14] 	avg_time[14] 	0.004282918975
scalar tree_4_3_u07_r18_network.client[15] 	hdistance[15] 	2.863932346723
scalar tree_4_3_u07_r18_network.client[15] 	downloads[15] 	11825
scalar tree_4_3_u07_r18_network.client[15] 	avg_time[15] 	0.00436025073
scalar tree_4_3_u07_r18_network.client[16] 	hdistance[16] 	2.8400974708008
scalar tree_4_3_u07_r18_network.client[16] 	downloads[16] 	11901
scalar tree_4_3_u07_r18_network.client[16] 	avg_time[16] 	0.004320402672
scalar tree_4_3_u07_r18_network.client[17] 	hdistance[17] 	2.8377976190476
scalar tree_4_3_u07_r18_network.client[17] 	downloads[17] 	12096
scalar tree_4_3_u07_r18_network.client[17] 	avg_time[17] 	0.004314646466
scalar tree_4_3_u07_r18_network.client[18] 	hdistance[18] 	2.8614833148417
scalar tree_4_3_u07_r18_network.client[18] 	downloads[18] 	11717
scalar tree_4_3_u07_r18_network.client[18] 	avg_time[18] 	0.004352774953
scalar tree_4_3_u07_r18_network.client[19] 	hdistance[19] 	2.8578898540946
scalar tree_4_3_u07_r18_network.client[19] 	downloads[19] 	11857
scalar tree_4_3_u07_r18_network.client[19] 	avg_time[19] 	0.004343858644
scalar tree_4_3_u07_r18_network.client[20] 	hdistance[20] 	2.8582821066622
scalar tree_4_3_u07_r18_network.client[20] 	downloads[20] 	12038
scalar tree_4_3_u07_r18_network.client[20] 	avg_time[20] 	0.004345403201
scalar tree_4_3_u07_r18_network.client[21] 	hdistance[21] 	2.8299057763212
scalar tree_4_3_u07_r18_network.client[21] 	downloads[21] 	12205
scalar tree_4_3_u07_r18_network.client[21] 	avg_time[21] 	0.004308942958
scalar tree_4_3_u07_r18_network.client[22] 	hdistance[22] 	2.8449720670391
scalar tree_4_3_u07_r18_network.client[22] 	downloads[22] 	12172
scalar tree_4_3_u07_r18_network.client[22] 	avg_time[22] 	0.004332367401
scalar tree_4_3_u07_r18_network.client[23] 	hdistance[23] 	2.8596870838881
scalar tree_4_3_u07_r18_network.client[23] 	downloads[23] 	12016
scalar tree_4_3_u07_r18_network.client[23] 	avg_time[23] 	0.004344060789
scalar tree_4_3_u07_r18_network.client[24] 	hdistance[24] 	2.8648694045519
scalar tree_4_3_u07_r18_network.client[24] 	downloads[24] 	11907
scalar tree_4_3_u07_r18_network.client[24] 	avg_time[24] 	0.004356771105
scalar tree_4_3_u07_r18_network.client[25] 	hdistance[25] 	2.8188963210702
scalar tree_4_3_u07_r18_network.client[25] 	downloads[25] 	11960
scalar tree_4_3_u07_r18_network.client[25] 	avg_time[25] 	0.004283879521
scalar tree_4_3_u07_r18_network.client[26] 	hdistance[26] 	2.8578019443071
scalar tree_4_3_u07_r18_network.client[26] 	downloads[26] 	12138
scalar tree_4_3_u07_r18_network.client[26] 	avg_time[26] 	0.004355904007
scalar tree_4_3_u07_r18_network.client[27] 	hdistance[27] 	2.8782507868146
scalar tree_4_3_u07_r18_network.client[27] 	downloads[27] 	12074
scalar tree_4_3_u07_r18_network.client[27] 	avg_time[27] 	0.004381043156
scalar tree_4_3_u07_r18_network.client[28] 	hdistance[28] 	2.8388155196456
scalar tree_4_3_u07_r18_network.client[28] 	downloads[28] 	12191
scalar tree_4_3_u07_r18_network.client[28] 	avg_time[28] 	0.004323186213
scalar tree_4_3_u07_r18_network.client[29] 	hdistance[29] 	2.8547495254601
scalar tree_4_3_u07_r18_network.client[29] 	downloads[29] 	12117
scalar tree_4_3_u07_r18_network.client[29] 	avg_time[29] 	0.004345296979
scalar tree_4_3_u07_r18_network.client[30] 	hdistance[30] 	2.8426497580511
scalar tree_4_3_u07_r18_network.client[30] 	downloads[30] 	11986
scalar tree_4_3_u07_r18_network.client[30] 	avg_time[30] 	0.004328213233
scalar tree_4_3_u07_r18_network.client[31] 	hdistance[31] 	2.8796484110886
scalar tree_4_3_u07_r18_network.client[31] 	downloads[31] 	11832
scalar tree_4_3_u07_r18_network.client[31] 	avg_time[31] 	0.004381156411
scalar tree_4_3_u07_r18_network.client[32] 	hdistance[32] 	2.7988253784432
scalar tree_4_3_u07_r18_network.client[32] 	downloads[32] 	12089
scalar tree_4_3_u07_r18_network.client[32] 	avg_time[32] 	0.004253789768
scalar tree_4_3_u07_r18_network.client[33] 	hdistance[33] 	2.8926568077511
scalar tree_4_3_u07_r18_network.client[33] 	downloads[33] 	11766
scalar tree_4_3_u07_r18_network.client[33] 	avg_time[33] 	0.004404382573
scalar tree_4_3_u07_r18_network.client[34] 	hdistance[34] 	2.8205470313542
scalar tree_4_3_u07_r18_network.client[34] 	downloads[34] 	11992
scalar tree_4_3_u07_r18_network.client[34] 	avg_time[34] 	0.004289506979
scalar tree_4_3_u07_r18_network.client[35] 	hdistance[35] 	2.8226874069171
scalar tree_4_3_u07_r18_network.client[35] 	downloads[35] 	12086
scalar tree_4_3_u07_r18_network.client[35] 	avg_time[35] 	0.004296042005
scalar tree_4_3_u07_r18_network.client[36] 	hdistance[36] 	2.818135722133
scalar tree_4_3_u07_r18_network.client[36] 	downloads[36] 	11833
scalar tree_4_3_u07_r18_network.client[36] 	avg_time[36] 	0.004285638904
scalar tree_4_3_u07_r18_network.client[37] 	hdistance[37] 	2.8299560959135
scalar tree_4_3_u07_r18_network.client[37] 	downloads[37] 	11844
scalar tree_4_3_u07_r18_network.client[37] 	avg_time[37] 	0.004302130847
scalar tree_4_3_u07_r18_network.client[38] 	hdistance[38] 	2.8357088639622
scalar tree_4_3_u07_r18_network.client[38] 	downloads[38] 	11857
scalar tree_4_3_u07_r18_network.client[38] 	avg_time[38] 	0.004315564621
scalar tree_4_3_u07_r18_network.client[39] 	hdistance[39] 	2.8314672459893
scalar tree_4_3_u07_r18_network.client[39] 	downloads[39] 	11968
scalar tree_4_3_u07_r18_network.client[39] 	avg_time[39] 	0.004306815171
