version 2
run General-154-20160820-00:06:57-9589
attr a 0.9
attr cd fix0.01
attr configname General
attr cr lru
attr datetime 20160820-00:06:57
attr experiment General
attr fsize 1
attr inifile hw5115/scenario_A/SPR-FIX0.01.ini
attr iterationvars "$name=tree_4_3, $un=07, $rep=15, $cd=fix0.01, $cr=lru, $fsize=1, $a=0.9, $sl=spr, $ttl=1000, $variance=0.05"
attr iterationvars2 "$name=tree_4_3, $un=07, $rep=15, $cd=fix0.01, $cr=lru, $fsize=1, $a=0.9, $sl=spr, $ttl=1000, $variance=0.05, $repetition=0"
attr measurement "$name=tree_4_3, $un=07, $rep=15, $cd=fix0.01, $cr=lru, $fsize=1, $a=0.9, $sl=spr, $ttl=1000, $variance=0.05"
attr name tree_4_3
attr network networks.${name}_u${un}_r${rep}_network
attr processid 9589
attr rep 15
attr repetition 0
attr replication #0
attr resultdir results
attr runnumber 154
attr seedset 15
attr sl spr
attr ttl 1000
attr un 07
attr variance 0.05

scalar . 	a 	0.9
scalar . 	fsize 	1
scalar . 	rep 	15
scalar . 	ttl 	1000
scalar . 	un 	07
scalar . 	variance 	0.05
scalar tree_4_3_u07_r15_network.content_distribution 	repo-0 	0
scalar tree_4_3_u07_r15_network.content_distribution 	client-0 	13
scalar tree_4_3_u07_r15_network.content_distribution 	client-1 	14
scalar tree_4_3_u07_r15_network.content_distribution 	client-2 	15
scalar tree_4_3_u07_r15_network.content_distribution 	client-3 	16
scalar tree_4_3_u07_r15_network.content_distribution 	client-4 	17
scalar tree_4_3_u07_r15_network.content_distribution 	client-5 	18
scalar tree_4_3_u07_r15_network.content_distribution 	client-6 	19
scalar tree_4_3_u07_r15_network.content_distribution 	client-7 	20
scalar tree_4_3_u07_r15_network.content_distribution 	client-8 	21
scalar tree_4_3_u07_r15_network.content_distribution 	client-9 	22
scalar tree_4_3_u07_r15_network.content_distribution 	client-10 	23
scalar tree_4_3_u07_r15_network.content_distribution 	client-11 	24
scalar tree_4_3_u07_r15_network.content_distribution 	client-12 	25
scalar tree_4_3_u07_r15_network.content_distribution 	client-13 	26
scalar tree_4_3_u07_r15_network.content_distribution 	client-14 	27
scalar tree_4_3_u07_r15_network.content_distribution 	client-15 	28
scalar tree_4_3_u07_r15_network.content_distribution 	client-16 	29
scalar tree_4_3_u07_r15_network.content_distribution 	client-17 	30
scalar tree_4_3_u07_r15_network.content_distribution 	client-18 	31
scalar tree_4_3_u07_r15_network.content_distribution 	client-19 	32
scalar tree_4_3_u07_r15_network.content_distribution 	client-20 	33
scalar tree_4_3_u07_r15_network.content_distribution 	client-21 	34
scalar tree_4_3_u07_r15_network.content_distribution 	client-22 	35
scalar tree_4_3_u07_r15_network.content_distribution 	client-23 	36
scalar tree_4_3_u07_r15_network.content_distribution 	client-24 	37
scalar tree_4_3_u07_r15_network.content_distribution 	client-25 	38
scalar tree_4_3_u07_r15_network.content_distribution 	client-26 	39
scalar tree_4_3_u07_r15_network.content_distribution 	repo-0_card 	100000
scalar tree_4_3_u07_r15_network.content_distribution 	repo-0_price 	0
scalar tree_4_3_u07_r15_network.statistics 	stabilization_time 	2306.3
scalar tree_4_3_u07_r15_network.statistics 	p_hit 	0.17760821158906
scalar tree_4_3_u07_r15_network.statistics 	interests 	25686.6
scalar tree_4_3_u07_r15_network.statistics 	data 	17591.125
scalar tree_4_3_u07_r15_network.statistics 	hdistance 	2.8546880888318
scalar tree_4_3_u07_r15_network.statistics 	avg_time 	0.004346026862
scalar tree_4_3_u07_r15_network.statistics 	downloads 	323818
scalar tree_4_3_u07_r15_network.statistics 	total_cost 	0
scalar tree_4_3_u07_r15_network.statistics 	total_replicas 	100000
scalar tree_4_3_u07_r15_network.statistics 	inner_hit 	0.31840107714827
scalar tree_4_3_u07_r15_network.node[0].core_layer 	interests[0] 	225602
scalar tree_4_3_u07_r15_network.node[0].core_layer 	repo_load[0] 	220714
scalar tree_4_3_u07_r15_network.node[0].core_layer 	data[0] 	0
scalar tree_4_3_u07_r15_network.node[0].core_layer 	repo_int[0] 	220714
scalar tree_4_3_u07_r15_network.node[0].content_store 	p_hit[0] 	0.021666474587991
scalar tree_4_3_u07_r15_network.node[0].content_store 	hits[0] 	4888
scalar tree_4_3_u07_r15_network.node[0].content_store 	misses[0] 	220714
scalar tree_4_3_u07_r15_network.node[0].content_store 	decision_yes[0] 	2163
scalar tree_4_3_u07_r15_network.node[0].content_store 	decision_no[0] 	218551
scalar tree_4_3_u07_r15_network.node[0].content_store 	decision_ratio[0] 	0.0098000126861006
scalar tree_4_3_u07_r15_network.node[1].core_layer 	interests[1] 	77542
scalar tree_4_3_u07_r15_network.node[1].core_layer 	data[1] 	75389
scalar tree_4_3_u07_r15_network.node[1].content_store 	p_hit[1] 	0.02772690928787
scalar tree_4_3_u07_r15_network.node[1].content_store 	hits[1] 	2150
scalar tree_4_3_u07_r15_network.node[1].content_store 	misses[1] 	75392
scalar tree_4_3_u07_r15_network.node[1].content_store 	decision_yes[1] 	762
scalar tree_4_3_u07_r15_network.node[1].content_store 	decision_no[1] 	74627
scalar tree_4_3_u07_r15_network.node[1].content_store 	decision_ratio[1] 	0.010107575375718
scalar tree_4_3_u07_r15_network.node[2].core_layer 	interests[2] 	111556
scalar tree_4_3_u07_r15_network.node[2].core_layer 	data[2] 	108705
scalar tree_4_3_u07_r15_network.node[2].content_store 	p_hit[2] 	0.025538742873534
scalar tree_4_3_u07_r15_network.node[2].content_store 	hits[2] 	2849
scalar tree_4_3_u07_r15_network.node[2].content_store 	misses[2] 	108707
scalar tree_4_3_u07_r15_network.node[2].content_store 	decision_yes[2] 	1152
scalar tree_4_3_u07_r15_network.node[2].content_store 	decision_no[2] 	107553
scalar tree_4_3_u07_r15_network.node[2].content_store 	decision_ratio[2] 	0.010597488615979
scalar tree_4_3_u07_r15_network.node[3].core_layer 	interests[3] 	42827
scalar tree_4_3_u07_r15_network.node[3].core_layer 	data[3] 	41509
scalar tree_4_3_u07_r15_network.node[3].content_store 	p_hit[3] 	0.030798328157471
scalar tree_4_3_u07_r15_network.node[3].content_store 	hits[3] 	1319
scalar tree_4_3_u07_r15_network.node[3].content_store 	misses[3] 	41508
scalar tree_4_3_u07_r15_network.node[3].content_store 	decision_yes[3] 	379
scalar tree_4_3_u07_r15_network.node[3].content_store 	decision_no[3] 	41130
scalar tree_4_3_u07_r15_network.node[3].content_store 	decision_ratio[3] 	0.0091305500012046
scalar tree_4_3_u07_r15_network.node[4].core_layer 	interests[4] 	45752
scalar tree_4_3_u07_r15_network.node[4].core_layer 	data[4] 	43032
scalar tree_4_3_u07_r15_network.node[4].content_store 	p_hit[4] 	0.059450952963805
scalar tree_4_3_u07_r15_network.node[4].content_store 	hits[4] 	2720
scalar tree_4_3_u07_r15_network.node[4].content_store 	misses[4] 	43032
scalar tree_4_3_u07_r15_network.node[4].content_store 	decision_yes[4] 	424
scalar tree_4_3_u07_r15_network.node[4].content_store 	decision_no[4] 	42608
scalar tree_4_3_u07_r15_network.node[4].content_store 	decision_ratio[4] 	0.0098531325525191
scalar tree_4_3_u07_r15_network.node[5].core_layer 	interests[5] 	27404
scalar tree_4_3_u07_r15_network.node[5].core_layer 	data[5] 	25828
scalar tree_4_3_u07_r15_network.node[5].content_store 	p_hit[5] 	0.057473361553058
scalar tree_4_3_u07_r15_network.node[5].content_store 	hits[5] 	1575
scalar tree_4_3_u07_r15_network.node[5].content_store 	misses[5] 	25829
scalar tree_4_3_u07_r15_network.node[5].content_store 	decision_yes[5] 	243
scalar tree_4_3_u07_r15_network.node[5].content_store 	decision_no[5] 	25585
scalar tree_4_3_u07_r15_network.node[5].content_store 	decision_ratio[5] 	0.0094083939910175
scalar tree_4_3_u07_r15_network.node[6].core_layer 	interests[6] 	9210
scalar tree_4_3_u07_r15_network.node[6].core_layer 	data[6] 	8681
scalar tree_4_3_u07_r15_network.node[6].content_store 	p_hit[6] 	0.057437567861021
scalar tree_4_3_u07_r15_network.node[6].content_store 	hits[6] 	529
scalar tree_4_3_u07_r15_network.node[6].content_store 	misses[6] 	8681
scalar tree_4_3_u07_r15_network.node[6].content_store 	decision_yes[6] 	83
scalar tree_4_3_u07_r15_network.node[6].content_store 	decision_no[6] 	8598
scalar tree_4_3_u07_r15_network.node[6].content_store 	decision_ratio[6] 	0.0095611104711439
scalar tree_4_3_u07_r15_network.node[7].core_layer 	interests[7] 	27468
scalar tree_4_3_u07_r15_network.node[7].core_layer 	data[7] 	25768
scalar tree_4_3_u07_r15_network.node[7].content_store 	p_hit[7] 	0.061817387505461
scalar tree_4_3_u07_r15_network.node[7].content_store 	hits[7] 	1698
scalar tree_4_3_u07_r15_network.node[7].content_store 	misses[7] 	25770
scalar tree_4_3_u07_r15_network.node[7].content_store 	decision_yes[7] 	245
scalar tree_4_3_u07_r15_network.node[7].content_store 	decision_no[7] 	25523
scalar tree_4_3_u07_r15_network.node[7].content_store 	decision_ratio[7] 	0.0095079167960261
scalar tree_4_3_u07_r15_network.node[8].core_layer 	interests[8] 	36244
scalar tree_4_3_u07_r15_network.node[8].core_layer 	data[8] 	34345
scalar tree_4_3_u07_r15_network.node[8].content_store 	p_hit[8] 	0.052367288378766
scalar tree_4_3_u07_r15_network.node[8].content_store 	hits[8] 	1898
scalar tree_4_3_u07_r15_network.node[8].content_store 	misses[8] 	34346
scalar tree_4_3_u07_r15_network.node[8].content_store 	decision_yes[8] 	339
scalar tree_4_3_u07_r15_network.node[8].content_store 	decision_no[8] 	34006
scalar tree_4_3_u07_r15_network.node[8].content_store 	decision_ratio[8] 	0.0098704323773475
scalar tree_4_3_u07_r15_network.node[9].core_layer 	interests[9] 	17992
scalar tree_4_3_u07_r15_network.node[9].core_layer 	data[9] 	17067
scalar tree_4_3_u07_r15_network.node[9].content_store 	p_hit[9] 	0.051411738550467
scalar tree_4_3_u07_r15_network.node[9].content_store 	hits[9] 	925
scalar tree_4_3_u07_r15_network.node[9].content_store 	misses[9] 	17067
scalar tree_4_3_u07_r15_network.node[9].content_store 	decision_yes[9] 	142
scalar tree_4_3_u07_r15_network.node[9].content_store 	decision_no[9] 	16925
scalar tree_4_3_u07_r15_network.node[9].content_store 	decision_ratio[9] 	0.0083201499970704
scalar tree_4_3_u07_r15_network.node[10].core_layer 	interests[10] 	27448
scalar tree_4_3_u07_r15_network.node[10].core_layer 	data[10] 	25742
scalar tree_4_3_u07_r15_network.node[10].content_store 	p_hit[10] 	0.062117458466919
scalar tree_4_3_u07_r15_network.node[10].content_store 	hits[10] 	1705
scalar tree_4_3_u07_r15_network.node[10].content_store 	misses[10] 	25743
scalar tree_4_3_u07_r15_network.node[10].content_store 	decision_yes[10] 	266
scalar tree_4_3_u07_r15_network.node[10].content_store 	decision_no[10] 	25476
scalar tree_4_3_u07_r15_network.node[10].content_store 	decision_ratio[10] 	0.01033330743532
scalar tree_4_3_u07_r15_network.node[11].core_layer 	interests[11] 	36344
scalar tree_4_3_u07_r15_network.node[11].core_layer 	data[11] 	34375
scalar tree_4_3_u07_r15_network.node[11].content_store 	p_hit[11] 	0.054176755447942
scalar tree_4_3_u07_r15_network.node[11].content_store 	hits[11] 	1969
scalar tree_4_3_u07_r15_network.node[11].content_store 	misses[11] 	34375
scalar tree_4_3_u07_r15_network.node[11].content_store 	decision_yes[11] 	327
scalar tree_4_3_u07_r15_network.node[11].content_store 	decision_no[11] 	34048
scalar tree_4_3_u07_r15_network.node[11].content_store 	decision_ratio[11] 	0.0095127272727273
scalar tree_4_3_u07_r15_network.node[12].core_layer 	interests[12] 	18256
scalar tree_4_3_u07_r15_network.node[12].core_layer 	data[12] 	17086
scalar tree_4_3_u07_r15_network.node[12].content_store 	p_hit[12] 	0.06408851884312
scalar tree_4_3_u07_r15_network.node[12].content_store 	hits[12] 	1170
scalar tree_4_3_u07_r15_network.node[12].content_store 	misses[12] 	17086
scalar tree_4_3_u07_r15_network.node[12].content_store 	decision_yes[12] 	170
scalar tree_4_3_u07_r15_network.node[12].content_store 	decision_no[12] 	16916
scalar tree_4_3_u07_r15_network.node[12].content_store 	decision_ratio[12] 	0.0099496663935386
scalar tree_4_3_u07_r15_network.node[13].core_layer 	interests[13] 	11962
scalar tree_4_3_u07_r15_network.node[13].core_layer 	data[13] 	9088
scalar tree_4_3_u07_r15_network.node[13].content_store 	p_hit[13] 	0.24026082594884
scalar tree_4_3_u07_r15_network.node[13].content_store 	hits[13] 	2874
scalar tree_4_3_u07_r15_network.node[13].content_store 	misses[13] 	9088
scalar tree_4_3_u07_r15_network.node[13].content_store 	decision_yes[13] 	85
scalar tree_4_3_u07_r15_network.node[13].content_store 	decision_no[13] 	9003
scalar tree_4_3_u07_r15_network.node[13].content_store 	decision_ratio[13] 	0.0093529929577465
scalar tree_4_3_u07_r15_network.node[14].core_layer 	interests[14] 	12017
scalar tree_4_3_u07_r15_network.node[14].core_layer 	data[14] 	9089
scalar tree_4_3_u07_r15_network.node[14].content_store 	p_hit[14] 	0.24365482233503
scalar tree_4_3_u07_r15_network.node[14].content_store 	hits[14] 	2928
scalar tree_4_3_u07_r15_network.node[14].content_store 	misses[14] 	9089
scalar tree_4_3_u07_r15_network.node[14].content_store 	decision_yes[14] 	84
scalar tree_4_3_u07_r15_network.node[14].content_store 	decision_no[14] 	9005
scalar tree_4_3_u07_r15_network.node[14].content_store 	decision_ratio[14] 	0.0092419408075696
scalar tree_4_3_u07_r15_network.node[15].core_layer 	interests[15] 	12006
scalar tree_4_3_u07_r15_network.node[15].core_layer 	data[15] 	9237
scalar tree_4_3_u07_r15_network.node[15].content_store 	p_hit[15] 	0.23063468265867
scalar tree_4_3_u07_r15_network.node[15].content_store 	hits[15] 	2769
scalar tree_4_3_u07_r15_network.node[15].content_store 	misses[15] 	9237
scalar tree_4_3_u07_r15_network.node[15].content_store 	decision_yes[15] 	88
scalar tree_4_3_u07_r15_network.node[15].content_store 	decision_no[15] 	9149
scalar tree_4_3_u07_r15_network.node[15].content_store 	decision_ratio[15] 	0.0095269026740284
scalar tree_4_3_u07_r15_network.node[16].core_layer 	interests[16] 	12016
scalar tree_4_3_u07_r15_network.node[16].core_layer 	data[16] 	9173
scalar tree_4_3_u07_r15_network.node[16].content_store 	p_hit[16] 	0.23660119840213
scalar tree_4_3_u07_r15_network.node[16].content_store 	hits[16] 	2843
scalar tree_4_3_u07_r15_network.node[16].content_store 	misses[16] 	9173
scalar tree_4_3_u07_r15_network.node[16].content_store 	decision_yes[16] 	96
scalar tree_4_3_u07_r15_network.node[16].content_store 	decision_no[16] 	9077
scalar tree_4_3_u07_r15_network.node[16].content_store 	decision_ratio[16] 	0.010465496566009
scalar tree_4_3_u07_r15_network.node[17].core_layer 	interests[17] 	12002
scalar tree_4_3_u07_r15_network.node[17].core_layer 	data[17] 	9237
scalar tree_4_3_u07_r15_network.node[17].content_store 	p_hit[17] 	0.23037827028829
scalar tree_4_3_u07_r15_network.node[17].content_store 	hits[17] 	2765
scalar tree_4_3_u07_r15_network.node[17].content_store 	misses[17] 	9237
scalar tree_4_3_u07_r15_network.node[17].content_store 	decision_yes[17] 	98
scalar tree_4_3_u07_r15_network.node[17].content_store 	decision_no[17] 	9139
scalar tree_4_3_u07_r15_network.node[17].content_store 	decision_ratio[17] 	0.010609505250622
scalar tree_4_3_u07_r15_network.node[18].core_layer 	interests[18] 	11942
scalar tree_4_3_u07_r15_network.node[18].core_layer 	data[18] 	9114
scalar tree_4_3_u07_r15_network.node[18].content_store 	p_hit[18] 	0.2366437782616
scalar tree_4_3_u07_r15_network.node[18].content_store 	hits[18] 	2826
scalar tree_4_3_u07_r15_network.node[18].content_store 	misses[18] 	9116
scalar tree_4_3_u07_r15_network.node[18].content_store 	decision_yes[18] 	104
scalar tree_4_3_u07_r15_network.node[18].content_store 	decision_no[18] 	9010
scalar tree_4_3_u07_r15_network.node[18].content_store 	decision_ratio[18] 	0.011411016019311
scalar tree_4_3_u07_r15_network.node[19].core_layer 	interests[19] 	12050
scalar tree_4_3_u07_r15_network.node[19].core_layer 	data[19] 	9165
scalar tree_4_3_u07_r15_network.node[19].content_store 	p_hit[19] 	0.23941908713693
scalar tree_4_3_u07_r15_network.node[19].content_store 	hits[19] 	2885
scalar tree_4_3_u07_r15_network.node[19].content_store 	misses[19] 	9165
scalar tree_4_3_u07_r15_network.node[19].content_store 	decision_yes[19] 	88
scalar tree_4_3_u07_r15_network.node[19].content_store 	decision_no[19] 	9077
scalar tree_4_3_u07_r15_network.node[19].content_store 	decision_ratio[19] 	0.0096017457719585
scalar tree_4_3_u07_r15_network.node[20].core_layer 	interests[20] 	12004
scalar tree_4_3_u07_r15_network.node[20].core_layer 	data[20] 	9052
scalar tree_4_3_u07_r15_network.node[20].content_store 	p_hit[20] 	0.24591802732423
scalar tree_4_3_u07_r15_network.node[20].content_store 	hits[20] 	2952
scalar tree_4_3_u07_r15_network.node[20].content_store 	misses[20] 	9052
scalar tree_4_3_u07_r15_network.node[20].content_store 	decision_yes[20] 	119
scalar tree_4_3_u07_r15_network.node[20].content_store 	decision_no[20] 	8933
scalar tree_4_3_u07_r15_network.node[20].content_store 	decision_ratio[20] 	0.013146266018559
scalar tree_4_3_u07_r15_network.node[21].core_layer 	interests[21] 	12126
scalar tree_4_3_u07_r15_network.node[21].core_layer 	data[21] 	9210
scalar tree_4_3_u07_r15_network.node[21].content_store 	p_hit[21] 	0.24047501237011
scalar tree_4_3_u07_r15_network.node[21].content_store 	hits[21] 	2916
scalar tree_4_3_u07_r15_network.node[21].content_store 	misses[21] 	9210
scalar tree_4_3_u07_r15_network.node[21].content_store 	decision_yes[21] 	79
scalar tree_4_3_u07_r15_network.node[21].content_store 	decision_no[21] 	9131
scalar tree_4_3_u07_r15_network.node[21].content_store 	decision_ratio[21] 	0.0085776330076004
scalar tree_4_3_u07_r15_network.node[22].core_layer 	interests[22] 	12191
scalar tree_4_3_u07_r15_network.node[22].core_layer 	data[22] 	9200
scalar tree_4_3_u07_r15_network.node[22].content_store 	p_hit[22] 	0.24534492658519
scalar tree_4_3_u07_r15_network.node[22].content_store 	hits[22] 	2991
scalar tree_4_3_u07_r15_network.node[22].content_store 	misses[22] 	9200
scalar tree_4_3_u07_r15_network.node[22].content_store 	decision_yes[22] 	86
scalar tree_4_3_u07_r15_network.node[22].content_store 	decision_no[22] 	9114
scalar tree_4_3_u07_r15_network.node[22].content_store 	decision_ratio[22] 	0.0093478260869565
scalar tree_4_3_u07_r15_network.node[23].core_layer 	interests[23] 	12045
scalar tree_4_3_u07_r15_network.node[23].core_layer 	data[23] 	9167
scalar tree_4_3_u07_r15_network.node[23].content_store 	p_hit[23] 	0.23885429638854
scalar tree_4_3_u07_r15_network.node[23].content_store 	hits[23] 	2877
scalar tree_4_3_u07_r15_network.node[23].content_store 	misses[23] 	9168
scalar tree_4_3_u07_r15_network.node[23].content_store 	decision_yes[23] 	102
scalar tree_4_3_u07_r15_network.node[23].content_store 	decision_no[23] 	9065
scalar tree_4_3_u07_r15_network.node[23].content_store 	decision_ratio[23] 	0.011126868113887
scalar tree_4_3_u07_r15_network.node[24].core_layer 	interests[24] 	11849
scalar tree_4_3_u07_r15_network.node[24].core_layer 	data[24] 	9100
scalar tree_4_3_u07_r15_network.node[24].content_store 	p_hit[24] 	0.23208709595746
scalar tree_4_3_u07_r15_network.node[24].content_store 	hits[24] 	2750
scalar tree_4_3_u07_r15_network.node[24].content_store 	misses[24] 	9099
scalar tree_4_3_u07_r15_network.node[24].content_store 	decision_yes[24] 	71
scalar tree_4_3_u07_r15_network.node[24].content_store 	decision_no[24] 	9029
scalar tree_4_3_u07_r15_network.node[24].content_store 	decision_ratio[24] 	0.0078021978021978
scalar tree_4_3_u07_r15_network.node[25].core_layer 	interests[25] 	12227
scalar tree_4_3_u07_r15_network.node[25].core_layer 	data[25] 	9312
scalar tree_4_3_u07_r15_network.node[25].content_store 	p_hit[25] 	0.23840680461274
scalar tree_4_3_u07_r15_network.node[25].content_store 	hits[25] 	2915
scalar tree_4_3_u07_r15_network.node[25].content_store 	misses[25] 	9312
scalar tree_4_3_u07_r15_network.node[25].content_store 	decision_yes[25] 	84
scalar tree_4_3_u07_r15_network.node[25].content_store 	decision_no[25] 	9228
scalar tree_4_3_u07_r15_network.node[25].content_store 	decision_ratio[25] 	0.009020618556701
scalar tree_4_3_u07_r15_network.node[26].core_layer 	interests[26] 	11979
scalar tree_4_3_u07_r15_network.node[26].core_layer 	data[26] 	8998
scalar tree_4_3_u07_r15_network.node[26].content_store 	p_hit[26] 	0.24885215794307
scalar tree_4_3_u07_r15_network.node[26].content_store 	hits[26] 	2981
scalar tree_4_3_u07_r15_network.node[26].content_store 	misses[26] 	8998
scalar tree_4_3_u07_r15_network.node[26].content_store 	decision_yes[26] 	96
scalar tree_4_3_u07_r15_network.node[26].content_store 	decision_no[26] 	8902
scalar tree_4_3_u07_r15_network.node[26].content_store 	decision_ratio[26] 	0.010669037563903
scalar tree_4_3_u07_r15_network.node[27].core_layer 	interests[27] 	11714
scalar tree_4_3_u07_r15_network.node[27].core_layer 	data[27] 	8912
scalar tree_4_3_u07_r15_network.node[27].content_store 	p_hit[27] 	0.23928632405668
scalar tree_4_3_u07_r15_network.node[27].content_store 	hits[27] 	2803
scalar tree_4_3_u07_r15_network.node[27].content_store 	misses[27] 	8911
scalar tree_4_3_u07_r15_network.node[27].content_store 	decision_yes[27] 	86
scalar tree_4_3_u07_r15_network.node[27].content_store 	decision_no[27] 	8826
scalar tree_4_3_u07_r15_network.node[27].content_store 	decision_ratio[27] 	0.0096499102333932
scalar tree_4_3_u07_r15_network.node[28].core_layer 	interests[28] 	11872
scalar tree_4_3_u07_r15_network.node[28].core_layer 	data[28] 	8889
scalar tree_4_3_u07_r15_network.node[28].content_store 	p_hit[28] 	0.25126347708895
scalar tree_4_3_u07_r15_network.node[28].content_store 	hits[28] 	2983
scalar tree_4_3_u07_r15_network.node[28].content_store 	misses[28] 	8889
scalar tree_4_3_u07_r15_network.node[28].content_store 	decision_yes[28] 	98
scalar tree_4_3_u07_r15_network.node[28].content_store 	decision_no[28] 	8791
scalar tree_4_3_u07_r15_network.node[28].content_store 	decision_ratio[28] 	0.011024862189223
scalar tree_4_3_u07_r15_network.node[29].core_layer 	interests[29] 	11920
scalar tree_4_3_u07_r15_network.node[29].core_layer 	data[29] 	9023
scalar tree_4_3_u07_r15_network.node[29].content_store 	p_hit[29] 	0.24303691275168
scalar tree_4_3_u07_r15_network.node[29].content_store 	hits[29] 	2897
scalar tree_4_3_u07_r15_network.node[29].content_store 	misses[29] 	9023
scalar tree_4_3_u07_r15_network.node[29].content_store 	decision_yes[29] 	101
scalar tree_4_3_u07_r15_network.node[29].content_store 	decision_no[29] 	8922
scalar tree_4_3_u07_r15_network.node[29].content_store 	decision_ratio[29] 	0.011193616313865
scalar tree_4_3_u07_r15_network.node[30].core_layer 	interests[30] 	12124
scalar tree_4_3_u07_r15_network.node[30].core_layer 	data[30] 	9103
scalar tree_4_3_u07_r15_network.node[30].content_store 	p_hit[30] 	0.249092708677
scalar tree_4_3_u07_r15_network.node[30].content_store 	hits[30] 	3020
scalar tree_4_3_u07_r15_network.node[30].content_store 	misses[30] 	9104
scalar tree_4_3_u07_r15_network.node[30].content_store 	decision_yes[30] 	93
scalar tree_4_3_u07_r15_network.node[30].content_store 	decision_no[30] 	9010
scalar tree_4_3_u07_r15_network.node[30].content_store 	decision_ratio[30] 	0.010216412171811
scalar tree_4_3_u07_r15_network.node[31].core_layer 	interests[31] 	11929
scalar tree_4_3_u07_r15_network.node[31].core_layer 	data[31] 	9063
scalar tree_4_3_u07_r15_network.node[31].content_store 	p_hit[31] 	0.24025484114343
scalar tree_4_3_u07_r15_network.node[31].content_store 	hits[31] 	2866
scalar tree_4_3_u07_r15_network.node[31].content_store 	misses[31] 	9063
scalar tree_4_3_u07_r15_network.node[31].content_store 	decision_yes[31] 	73
scalar tree_4_3_u07_r15_network.node[31].content_store 	decision_no[31] 	8990
scalar tree_4_3_u07_r15_network.node[31].content_store 	decision_ratio[31] 	0.0080547280150061
scalar tree_4_3_u07_r15_network.node[32].core_layer 	interests[32] 	12005
scalar tree_4_3_u07_r15_network.node[32].core_layer 	data[32] 	9094
scalar tree_4_3_u07_r15_network.node[32].content_store 	p_hit[32] 	0.24248229904207
scalar tree_4_3_u07_r15_network.node[32].content_store 	hits[32] 	2911
scalar tree_4_3_u07_r15_network.node[32].content_store 	misses[32] 	9094
scalar tree_4_3_u07_r15_network.node[32].content_store 	decision_yes[32] 	76
scalar tree_4_3_u07_r15_network.node[32].content_store 	decision_no[32] 	9018
scalar tree_4_3_u07_r15_network.node[32].content_store 	decision_ratio[32] 	0.0083571585660875
scalar tree_4_3_u07_r15_network.node[33].core_layer 	interests[33] 	11847
scalar tree_4_3_u07_r15_network.node[33].core_layer 	data[33] 	9077
scalar tree_4_3_u07_r15_network.node[33].content_store 	p_hit[33] 	0.23389887735292
scalar tree_4_3_u07_r15_network.node[33].content_store 	hits[33] 	2771
scalar tree_4_3_u07_r15_network.node[33].content_store 	misses[33] 	9076
scalar tree_4_3_u07_r15_network.node[33].content_store 	decision_yes[33] 	91
scalar tree_4_3_u07_r15_network.node[33].content_store 	decision_no[33] 	8986
scalar tree_4_3_u07_r15_network.node[33].content_store 	decision_ratio[33] 	0.010025338768316
scalar tree_4_3_u07_r15_network.node[34].core_layer 	interests[34] 	12104
scalar tree_4_3_u07_r15_network.node[34].core_layer 	data[34] 	9154
scalar tree_4_3_u07_r15_network.node[34].content_store 	p_hit[34] 	0.24372108393919
scalar tree_4_3_u07_r15_network.node[34].content_store 	hits[34] 	2950
scalar tree_4_3_u07_r15_network.node[34].content_store 	misses[34] 	9154
scalar tree_4_3_u07_r15_network.node[34].content_store 	decision_yes[34] 	72
scalar tree_4_3_u07_r15_network.node[34].content_store 	decision_no[34] 	9082
scalar tree_4_3_u07_r15_network.node[34].content_store 	decision_ratio[34] 	0.007865414026655
scalar tree_4_3_u07_r15_network.node[35].core_layer 	interests[35] 	11808
scalar tree_4_3_u07_r15_network.node[35].core_layer 	data[35] 	8939
scalar tree_4_3_u07_r15_network.node[35].content_store 	p_hit[35] 	0.24297086720867
scalar tree_4_3_u07_r15_network.node[35].content_store 	hits[35] 	2869
scalar tree_4_3_u07_r15_network.node[35].content_store 	misses[35] 	8939
scalar tree_4_3_u07_r15_network.node[35].content_store 	decision_yes[35] 	89
scalar tree_4_3_u07_r15_network.node[35].content_store 	decision_no[35] 	8850
scalar tree_4_3_u07_r15_network.node[35].content_store 	decision_ratio[35] 	0.0099563709587202
scalar tree_4_3_u07_r15_network.node[36].core_layer 	interests[36] 	11981
scalar tree_4_3_u07_r15_network.node[36].core_layer 	data[36] 	9157
scalar tree_4_3_u07_r15_network.node[36].content_store 	p_hit[36] 	0.23570653534763
scalar tree_4_3_u07_r15_network.node[36].content_store 	hits[36] 	2824
scalar tree_4_3_u07_r15_network.node[36].content_store 	misses[36] 	9157
scalar tree_4_3_u07_r15_network.node[36].content_store 	decision_yes[36] 	82
scalar tree_4_3_u07_r15_network.node[36].content_store 	decision_no[36] 	9075
scalar tree_4_3_u07_r15_network.node[36].content_store 	decision_ratio[36] 	0.0089548978923228
scalar tree_4_3_u07_r15_network.node[37].core_layer 	interests[37] 	12271
scalar tree_4_3_u07_r15_network.node[37].core_layer 	data[37] 	9309
scalar tree_4_3_u07_r15_network.node[37].content_store 	p_hit[37] 	0.24138212044658
scalar tree_4_3_u07_r15_network.node[37].content_store 	hits[37] 	2962
scalar tree_4_3_u07_r15_network.node[37].content_store 	misses[37] 	9309
scalar tree_4_3_u07_r15_network.node[37].content_store 	decision_yes[37] 	83
scalar tree_4_3_u07_r15_network.node[37].content_store 	decision_no[37] 	9226
scalar tree_4_3_u07_r15_network.node[37].content_store 	decision_ratio[37] 	0.0089161026963154
scalar tree_4_3_u07_r15_network.node[38].core_layer 	interests[38] 	11969
scalar tree_4_3_u07_r15_network.node[38].core_layer 	data[38] 	9099
scalar tree_4_3_u07_r15_network.node[38].content_store 	p_hit[38] 	0.23978611412816
scalar tree_4_3_u07_r15_network.node[38].content_store 	hits[38] 	2870
scalar tree_4_3_u07_r15_network.node[38].content_store 	misses[38] 	9099
scalar tree_4_3_u07_r15_network.node[38].content_store 	decision_yes[38] 	117
scalar tree_4_3_u07_r15_network.node[38].content_store 	decision_no[38] 	8982
scalar tree_4_3_u07_r15_network.node[38].content_store 	decision_ratio[38] 	0.012858555885262
scalar tree_4_3_u07_r15_network.node[39].core_layer 	interests[39] 	11859
scalar tree_4_3_u07_r15_network.node[39].core_layer 	data[39] 	9157
scalar tree_4_3_u07_r15_network.node[39].content_store 	p_hit[39] 	0.22784383168901
scalar tree_4_3_u07_r15_network.node[39].content_store 	hits[39] 	2702
scalar tree_4_3_u07_r15_network.node[39].content_store 	misses[39] 	9157
scalar tree_4_3_u07_r15_network.node[39].content_store 	decision_yes[39] 	74
scalar tree_4_3_u07_r15_network.node[39].content_store 	decision_no[39] 	9083
scalar tree_4_3_u07_r15_network.node[39].content_store 	decision_ratio[39] 	0.0080812493174621
scalar tree_4_3_u07_r15_network.client[13] 	hdistance[13] 	2.862731984618
scalar tree_4_3_u07_r15_network.client[13] 	downloads[13] 	11962
scalar tree_4_3_u07_r15_network.client[13] 	avg_time[13] 	0.004355790366
scalar tree_4_3_u07_r15_network.client[14] 	hdistance[14] 	2.8422235166847
scalar tree_4_3_u07_r15_network.client[14] 	downloads[14] 	12017
scalar tree_4_3_u07_r15_network.client[14] 	avg_time[14] 	0.00432686722
scalar tree_4_3_u07_r15_network.client[15] 	hdistance[15] 	2.8634016325171
scalar tree_4_3_u07_r15_network.client[15] 	downloads[15] 	12006
scalar tree_4_3_u07_r15_network.client[15] 	avg_time[15] 	0.004362033514
scalar tree_4_3_u07_r15_network.client[16] 	hdistance[16] 	2.8556091877497
scalar tree_4_3_u07_r15_network.client[16] 	downloads[16] 	12016
scalar tree_4_3_u07_r15_network.client[16] 	avg_time[16] 	0.004347533592
scalar tree_4_3_u07_r15_network.client[17] 	hdistance[17] 	2.8786868855191
scalar tree_4_3_u07_r15_network.client[17] 	downloads[17] 	12002
scalar tree_4_3_u07_r15_network.client[17] 	avg_time[17] 	0.004388265614
scalar tree_4_3_u07_r15_network.client[18] 	hdistance[18] 	2.8689279731993
scalar tree_4_3_u07_r15_network.client[18] 	downloads[18] 	11940
scalar tree_4_3_u07_r15_network.client[18] 	avg_time[18] 	0.004362110633
scalar tree_4_3_u07_r15_network.client[19] 	hdistance[19] 	2.8575933609959
scalar tree_4_3_u07_r15_network.client[19] 	downloads[19] 	12050
scalar tree_4_3_u07_r15_network.client[19] 	avg_time[19] 	0.004347714844
scalar tree_4_3_u07_r15_network.client[20] 	hdistance[20] 	2.8545484838387
scalar tree_4_3_u07_r15_network.client[20] 	downloads[20] 	12004
scalar tree_4_3_u07_r15_network.client[20] 	avg_time[20] 	0.004339446237
scalar tree_4_3_u07_r15_network.client[21] 	hdistance[21] 	2.8509813623619
scalar tree_4_3_u07_r15_network.client[21] 	downloads[21] 	12126
scalar tree_4_3_u07_r15_network.client[21] 	avg_time[21] 	0.00434122771
scalar tree_4_3_u07_r15_network.client[22] 	hdistance[22] 	2.8316791075383
scalar tree_4_3_u07_r15_network.client[22] 	downloads[22] 	12191
scalar tree_4_3_u07_r15_network.client[22] 	avg_time[22] 	0.004308983388
scalar tree_4_3_u07_r15_network.client[23] 	hdistance[23] 	2.8669046828296
scalar tree_4_3_u07_r15_network.client[23] 	downloads[23] 	12044
scalar tree_4_3_u07_r15_network.client[23] 	avg_time[23] 	0.004363154847
scalar tree_4_3_u07_r15_network.client[24] 	hdistance[24] 	2.8669198312236
scalar tree_4_3_u07_r15_network.client[24] 	downloads[24] 	11850
scalar tree_4_3_u07_r15_network.client[24] 	avg_time[24] 	0.004366748065
scalar tree_4_3_u07_r15_network.client[25] 	hdistance[25] 	2.8567105585998
scalar tree_4_3_u07_r15_network.client[25] 	downloads[25] 	12227
scalar tree_4_3_u07_r15_network.client[25] 	avg_time[25] 	0.004348242629
scalar tree_4_3_u07_r15_network.client[26] 	hdistance[26] 	2.8404708239419
scalar tree_4_3_u07_r15_network.client[26] 	downloads[26] 	11979
scalar tree_4_3_u07_r15_network.client[26] 	avg_time[26] 	0.004325065871
scalar tree_4_3_u07_r15_network.client[27] 	hdistance[27] 	2.8723004694836
scalar tree_4_3_u07_r15_network.client[27] 	downloads[27] 	11715
scalar tree_4_3_u07_r15_network.client[27] 	avg_time[27] 	0.00436857391
scalar tree_4_3_u07_r15_network.client[28] 	hdistance[28] 	2.8110680592992
scalar tree_4_3_u07_r15_network.client[28] 	downloads[28] 	11872
scalar tree_4_3_u07_r15_network.client[28] 	avg_time[28] 	0.004281154787
scalar tree_4_3_u07_r15_network.client[29] 	hdistance[29] 	2.8713926174497
scalar tree_4_3_u07_r15_network.client[29] 	downloads[29] 	11920
scalar tree_4_3_u07_r15_network.client[29] 	avg_time[29] 	0.004366607793
scalar tree_4_3_u07_r15_network.client[30] 	hdistance[30] 	2.8454178008744
scalar tree_4_3_u07_r15_network.client[30] 	downloads[30] 	12123
scalar tree_4_3_u07_r15_network.client[30] 	avg_time[30] 	0.004329382791
scalar tree_4_3_u07_r15_network.client[31] 	hdistance[31] 	2.840221309414
scalar tree_4_3_u07_r15_network.client[31] 	downloads[31] 	11929
scalar tree_4_3_u07_r15_network.client[31] 	avg_time[31] 	0.00432656223
scalar tree_4_3_u07_r15_network.client[32] 	hdistance[32] 	2.8500624739692
scalar tree_4_3_u07_r15_network.client[32] 	downloads[32] 	12005
scalar tree_4_3_u07_r15_network.client[32] 	avg_time[32] 	0.004341319392
scalar tree_4_3_u07_r15_network.client[33] 	hdistance[33] 	2.8765192437542
scalar tree_4_3_u07_r15_network.client[33] 	downloads[33] 	11848
scalar tree_4_3_u07_r15_network.client[33] 	avg_time[33] 	0.004378626336
scalar tree_4_3_u07_r15_network.client[34] 	hdistance[34] 	2.8441837409121
scalar tree_4_3_u07_r15_network.client[34] 	downloads[34] 	12104
scalar tree_4_3_u07_r15_network.client[34] 	avg_time[34] 	0.004331457655
scalar tree_4_3_u07_r15_network.client[35] 	hdistance[35] 	2.8515413279133
scalar tree_4_3_u07_r15_network.client[35] 	downloads[35] 	11808
scalar tree_4_3_u07_r15_network.client[35] 	avg_time[35] 	0.004339089176
scalar tree_4_3_u07_r15_network.client[36] 	hdistance[36] 	2.8791419747934
scalar tree_4_3_u07_r15_network.client[36] 	downloads[36] 	11981
scalar tree_4_3_u07_r15_network.client[36] 	avg_time[36] 	0.004381601223
scalar tree_4_3_u07_r15_network.client[37] 	hdistance[37] 	2.8251976204058
scalar tree_4_3_u07_r15_network.client[37] 	downloads[37] 	12271
scalar tree_4_3_u07_r15_network.client[37] 	avg_time[37] 	0.004307225367
scalar tree_4_3_u07_r15_network.client[38] 	hdistance[38] 	2.8427604645334
scalar tree_4_3_u07_r15_network.client[38] 	downloads[38] 	11969
scalar tree_4_3_u07_r15_network.client[38] 	avg_time[38] 	0.004331520076
scalar tree_4_3_u07_r15_network.client[39] 	hdistance[39] 	2.8693819040391
scalar tree_4_3_u07_r15_network.client[39] 	downloads[39] 	11859
scalar tree_4_3_u07_r15_network.client[39] 	avg_time[39] 	0.004376420009
