version 2
run General-146-20160819-23:49:24-9589
attr a 0.9
attr cd fix0.01
attr configname General
attr cr lru
attr datetime 20160819-23:49:24
attr experiment General
attr fsize 1
attr inifile hw5115/scenario_A/SPR-FIX0.01.ini
attr iterationvars "$name=tree_4_3, $un=07, $rep=7, $cd=fix0.01, $cr=lru, $fsize=1, $a=0.9, $sl=spr, $ttl=1000, $variance=0.05"
attr iterationvars2 "$name=tree_4_3, $un=07, $rep=7, $cd=fix0.01, $cr=lru, $fsize=1, $a=0.9, $sl=spr, $ttl=1000, $variance=0.05, $repetition=0"
attr measurement "$name=tree_4_3, $un=07, $rep=7, $cd=fix0.01, $cr=lru, $fsize=1, $a=0.9, $sl=spr, $ttl=1000, $variance=0.05"
attr name tree_4_3
attr network networks.${name}_u${un}_r${rep}_network
attr processid 9589
attr rep 7
attr repetition 0
attr replication #0
attr resultdir results
attr runnumber 146
attr seedset 7
attr sl spr
attr ttl 1000
attr un 07
attr variance 0.05

scalar . 	a 	0.9
scalar . 	fsize 	1
scalar . 	rep 	7
scalar . 	ttl 	1000
scalar . 	un 	07
scalar . 	variance 	0.05
scalar tree_4_3_u07_r7_network.content_distribution 	repo-0 	0
scalar tree_4_3_u07_r7_network.content_distribution 	client-0 	13
scalar tree_4_3_u07_r7_network.content_distribution 	client-1 	14
scalar tree_4_3_u07_r7_network.content_distribution 	client-2 	15
scalar tree_4_3_u07_r7_network.content_distribution 	client-3 	16
scalar tree_4_3_u07_r7_network.content_distribution 	client-4 	17
scalar tree_4_3_u07_r7_network.content_distribution 	client-5 	18
scalar tree_4_3_u07_r7_network.content_distribution 	client-6 	19
scalar tree_4_3_u07_r7_network.content_distribution 	client-7 	20
scalar tree_4_3_u07_r7_network.content_distribution 	client-8 	21
scalar tree_4_3_u07_r7_network.content_distribution 	client-9 	22
scalar tree_4_3_u07_r7_network.content_distribution 	client-10 	23
scalar tree_4_3_u07_r7_network.content_distribution 	client-11 	24
scalar tree_4_3_u07_r7_network.content_distribution 	client-12 	25
scalar tree_4_3_u07_r7_network.content_distribution 	client-13 	26
scalar tree_4_3_u07_r7_network.content_distribution 	client-14 	27
scalar tree_4_3_u07_r7_network.content_distribution 	client-15 	28
scalar tree_4_3_u07_r7_network.content_distribution 	client-16 	29
scalar tree_4_3_u07_r7_network.content_distribution 	client-17 	30
scalar tree_4_3_u07_r7_network.content_distribution 	client-18 	31
scalar tree_4_3_u07_r7_network.content_distribution 	client-19 	32
scalar tree_4_3_u07_r7_network.content_distribution 	client-20 	33
scalar tree_4_3_u07_r7_network.content_distribution 	client-21 	34
scalar tree_4_3_u07_r7_network.content_distribution 	client-22 	35
scalar tree_4_3_u07_r7_network.content_distribution 	client-23 	36
scalar tree_4_3_u07_r7_network.content_distribution 	client-24 	37
scalar tree_4_3_u07_r7_network.content_distribution 	client-25 	38
scalar tree_4_3_u07_r7_network.content_distribution 	client-26 	39
scalar tree_4_3_u07_r7_network.content_distribution 	repo-0_card 	100000
scalar tree_4_3_u07_r7_network.content_distribution 	repo-0_price 	0
scalar tree_4_3_u07_r7_network.statistics 	stabilization_time 	2452.6
scalar tree_4_3_u07_r7_network.statistics 	p_hit 	0.17860977601921
scalar tree_4_3_u07_r7_network.statistics 	interests 	25660.55
scalar tree_4_3_u07_r7_network.statistics 	data 	17564
scalar tree_4_3_u07_r7_network.statistics 	hdistance 	2.8497220051658
scalar tree_4_3_u07_r7_network.statistics 	avg_time 	0.004338791596
scalar tree_4_3_u07_r7_network.statistics 	downloads 	323852
scalar tree_4_3_u07_r7_network.statistics 	total_cost 	0
scalar tree_4_3_u07_r7_network.statistics 	total_replicas 	100000
scalar tree_4_3_u07_r7_network.statistics 	inner_hit 	0.31974790953893
scalar tree_4_3_u07_r7_network.node[0].core_layer 	interests[0] 	225023
scalar tree_4_3_u07_r7_network.node[0].core_layer 	repo_load[0] 	220301
scalar tree_4_3_u07_r7_network.node[0].core_layer 	data[0] 	0
scalar tree_4_3_u07_r7_network.node[0].core_layer 	repo_int[0] 	220301
scalar tree_4_3_u07_r7_network.node[0].content_store 	p_hit[0] 	0.020984521582238
scalar tree_4_3_u07_r7_network.node[0].content_store 	hits[0] 	4722
scalar tree_4_3_u07_r7_network.node[0].content_store 	misses[0] 	220301
scalar tree_4_3_u07_r7_network.node[0].content_store 	decision_yes[0] 	2121
scalar tree_4_3_u07_r7_network.node[0].content_store 	decision_no[0] 	218180
scalar tree_4_3_u07_r7_network.node[0].content_store 	decision_ratio[0] 	0.0096277365967472
scalar tree_4_3_u07_r7_network.node[1].core_layer 	interests[1] 	154752
scalar tree_4_3_u07_r7_network.node[1].core_layer 	data[1] 	150511
scalar tree_4_3_u07_r7_network.node[1].content_store 	p_hit[1] 	0.027359904880066
scalar tree_4_3_u07_r7_network.node[1].content_store 	hits[1] 	4234
scalar tree_4_3_u07_r7_network.node[1].content_store 	misses[1] 	150518
scalar tree_4_3_u07_r7_network.node[1].content_store 	decision_yes[1] 	1514
scalar tree_4_3_u07_r7_network.node[1].content_store 	decision_no[1] 	148997
scalar tree_4_3_u07_r7_network.node[1].content_store 	decision_ratio[1] 	0.010059065450366
scalar tree_4_3_u07_r7_network.node[2].core_layer 	interests[2] 	59790
scalar tree_4_3_u07_r7_network.node[2].core_layer 	data[2] 	57947
scalar tree_4_3_u07_r7_network.node[2].content_store 	p_hit[2] 	0.030807827395886
scalar tree_4_3_u07_r7_network.node[2].content_store 	hits[2] 	1842
scalar tree_4_3_u07_r7_network.node[2].content_store 	misses[2] 	57948
scalar tree_4_3_u07_r7_network.node[2].content_store 	decision_yes[2] 	631
scalar tree_4_3_u07_r7_network.node[2].content_store 	decision_no[2] 	57316
scalar tree_4_3_u07_r7_network.node[2].content_store 	decision_ratio[2] 	0.010889260876318
scalar tree_4_3_u07_r7_network.node[3].core_layer 	interests[3] 	17225
scalar tree_4_3_u07_r7_network.node[3].core_layer 	data[3] 	16565
scalar tree_4_3_u07_r7_network.node[3].content_store 	p_hit[3] 	0.038316400580552
scalar tree_4_3_u07_r7_network.node[3].content_store 	hits[3] 	660
scalar tree_4_3_u07_r7_network.node[3].content_store 	misses[3] 	16565
scalar tree_4_3_u07_r7_network.node[3].content_store 	decision_yes[3] 	153
scalar tree_4_3_u07_r7_network.node[3].content_store 	decision_no[3] 	16412
scalar tree_4_3_u07_r7_network.node[3].content_store 	decision_ratio[3] 	0.0092363416842741
scalar tree_4_3_u07_r7_network.node[4].core_layer 	interests[4] 	45428
scalar tree_4_3_u07_r7_network.node[4].core_layer 	data[4] 	42984
scalar tree_4_3_u07_r7_network.node[4].content_store 	p_hit[4] 	0.053799418860615
scalar tree_4_3_u07_r7_network.node[4].content_store 	hits[4] 	2444
scalar tree_4_3_u07_r7_network.node[4].content_store 	misses[4] 	42984
scalar tree_4_3_u07_r7_network.node[4].content_store 	decision_yes[4] 	428
scalar tree_4_3_u07_r7_network.node[4].content_store 	decision_no[4] 	42556
scalar tree_4_3_u07_r7_network.node[4].content_store 	decision_ratio[4] 	0.0099571933742788
scalar tree_4_3_u07_r7_network.node[5].core_layer 	interests[5] 	18425
scalar tree_4_3_u07_r7_network.node[5].core_layer 	data[5] 	17385
scalar tree_4_3_u07_r7_network.node[5].content_store 	p_hit[5] 	0.056445047489824
scalar tree_4_3_u07_r7_network.node[5].content_store 	hits[5] 	1040
scalar tree_4_3_u07_r7_network.node[5].content_store 	misses[5] 	17385
scalar tree_4_3_u07_r7_network.node[5].content_store 	decision_yes[5] 	177
scalar tree_4_3_u07_r7_network.node[5].content_store 	decision_no[5] 	17208
scalar tree_4_3_u07_r7_network.node[5].content_store 	decision_ratio[5] 	0.010181190681622
scalar tree_4_3_u07_r7_network.node[6].core_layer 	interests[6] 	18193
scalar tree_4_3_u07_r7_network.node[6].core_layer 	data[6] 	17096
scalar tree_4_3_u07_r7_network.node[6].content_store 	p_hit[6] 	0.06029791678118
scalar tree_4_3_u07_r7_network.node[6].content_store 	hits[6] 	1097
scalar tree_4_3_u07_r7_network.node[6].content_store 	misses[6] 	17096
scalar tree_4_3_u07_r7_network.node[6].content_store 	decision_yes[6] 	199
scalar tree_4_3_u07_r7_network.node[6].content_store 	decision_no[6] 	16897
scalar tree_4_3_u07_r7_network.node[6].content_store 	decision_ratio[6] 	0.01164014974263
scalar tree_4_3_u07_r7_network.node[7].core_layer 	interests[7] 	36342
scalar tree_4_3_u07_r7_network.node[7].core_layer 	data[7] 	34175
scalar tree_4_3_u07_r7_network.node[7].content_store 	p_hit[7] 	0.059627978647295
scalar tree_4_3_u07_r7_network.node[7].content_store 	hits[7] 	2167
scalar tree_4_3_u07_r7_network.node[7].content_store 	misses[7] 	34175
scalar tree_4_3_u07_r7_network.node[7].content_store 	decision_yes[7] 	352
scalar tree_4_3_u07_r7_network.node[7].content_store 	decision_no[7] 	33823
scalar tree_4_3_u07_r7_network.node[7].content_store 	decision_ratio[7] 	0.01029992684711
scalar tree_4_3_u07_r7_network.node[8].core_layer 	interests[8] 	27250
scalar tree_4_3_u07_r7_network.node[8].core_layer 	data[8] 	25427
scalar tree_4_3_u07_r7_network.node[8].content_store 	p_hit[8] 	0.066899082568807
scalar tree_4_3_u07_r7_network.node[8].content_store 	hits[8] 	1823
scalar tree_4_3_u07_r7_network.node[8].content_store 	misses[8] 	25427
scalar tree_4_3_u07_r7_network.node[8].content_store 	decision_yes[8] 	240
scalar tree_4_3_u07_r7_network.node[8].content_store 	decision_no[8] 	25187
scalar tree_4_3_u07_r7_network.node[8].content_store 	decision_ratio[8] 	0.0094387855429268
scalar tree_4_3_u07_r7_network.node[9].core_layer 	interests[9] 	18380
scalar tree_4_3_u07_r7_network.node[9].core_layer 	data[9] 	17214
scalar tree_4_3_u07_r7_network.node[9].content_store 	p_hit[9] 	0.063438520130577
scalar tree_4_3_u07_r7_network.node[9].content_store 	hits[9] 	1166
scalar tree_4_3_u07_r7_network.node[9].content_store 	misses[9] 	17214
scalar tree_4_3_u07_r7_network.node[9].content_store 	decision_yes[9] 	165
scalar tree_4_3_u07_r7_network.node[9].content_store 	decision_no[9] 	17049
scalar tree_4_3_u07_r7_network.node[9].content_store 	decision_ratio[9] 	0.0095852213314744
scalar tree_4_3_u07_r7_network.node[10].core_layer 	interests[10] 	45466
scalar tree_4_3_u07_r7_network.node[10].core_layer 	data[10] 	43112
scalar tree_4_3_u07_r7_network.node[10].content_store 	p_hit[10] 	0.05175295825452
scalar tree_4_3_u07_r7_network.node[10].content_store 	hits[10] 	2353
scalar tree_4_3_u07_r7_network.node[10].content_store 	misses[10] 	43113
scalar tree_4_3_u07_r7_network.node[10].content_store 	decision_yes[10] 	450
scalar tree_4_3_u07_r7_network.node[10].content_store 	decision_no[10] 	42662
scalar tree_4_3_u07_r7_network.node[10].content_store 	decision_ratio[10] 	0.010437929114864
scalar tree_4_3_u07_r7_network.node[11].core_layer 	interests[11] 	17988
scalar tree_4_3_u07_r7_network.node[11].core_layer 	data[11] 	17149
scalar tree_4_3_u07_r7_network.node[11].content_store 	p_hit[11] 	0.046642205915054
scalar tree_4_3_u07_r7_network.node[11].content_store 	hits[11] 	839
scalar tree_4_3_u07_r7_network.node[11].content_store 	misses[11] 	17149
scalar tree_4_3_u07_r7_network.node[11].content_store 	decision_yes[11] 	168
scalar tree_4_3_u07_r7_network.node[11].content_store 	decision_no[11] 	16981
scalar tree_4_3_u07_r7_network.node[11].content_store 	decision_ratio[11] 	0.0097964895912298
scalar tree_4_3_u07_r7_network.node[12].core_layer 	interests[12] 	18299
scalar tree_4_3_u07_r7_network.node[12].core_layer 	data[12] 	17225
scalar tree_4_3_u07_r7_network.node[12].content_store 	p_hit[12] 	0.058691731788622
scalar tree_4_3_u07_r7_network.node[12].content_store 	hits[12] 	1074
scalar tree_4_3_u07_r7_network.node[12].content_store 	misses[12] 	17225
scalar tree_4_3_u07_r7_network.node[12].content_store 	decision_yes[12] 	168
scalar tree_4_3_u07_r7_network.node[12].content_store 	decision_no[12] 	17057
scalar tree_4_3_u07_r7_network.node[12].content_store 	decision_ratio[12] 	0.0097532656023222
scalar tree_4_3_u07_r7_network.node[13].core_layer 	interests[13] 	11808
scalar tree_4_3_u07_r7_network.node[13].core_layer 	data[13] 	8976
scalar tree_4_3_u07_r7_network.node[13].content_store 	p_hit[13] 	0.23983739837398
scalar tree_4_3_u07_r7_network.node[13].content_store 	hits[13] 	2832
scalar tree_4_3_u07_r7_network.node[13].content_store 	misses[13] 	8976
scalar tree_4_3_u07_r7_network.node[13].content_store 	decision_yes[13] 	82
scalar tree_4_3_u07_r7_network.node[13].content_store 	decision_no[13] 	8894
scalar tree_4_3_u07_r7_network.node[13].content_store 	decision_ratio[13] 	0.0091354723707665
scalar tree_4_3_u07_r7_network.node[14].core_layer 	interests[14] 	11857
scalar tree_4_3_u07_r7_network.node[14].core_layer 	data[14] 	9072
scalar tree_4_3_u07_r7_network.node[14].content_store 	p_hit[14] 	0.23479800961457
scalar tree_4_3_u07_r7_network.node[14].content_store 	hits[14] 	2784
scalar tree_4_3_u07_r7_network.node[14].content_store 	misses[14] 	9073
scalar tree_4_3_u07_r7_network.node[14].content_store 	decision_yes[14] 	102
scalar tree_4_3_u07_r7_network.node[14].content_store 	decision_no[14] 	8970
scalar tree_4_3_u07_r7_network.node[14].content_store 	decision_ratio[14] 	0.011243386243386
scalar tree_4_3_u07_r7_network.node[15].core_layer 	interests[15] 	11956
scalar tree_4_3_u07_r7_network.node[15].core_layer 	data[15] 	9121
scalar tree_4_3_u07_r7_network.node[15].content_store 	p_hit[15] 	0.23711943793911
scalar tree_4_3_u07_r7_network.node[15].content_store 	hits[15] 	2835
scalar tree_4_3_u07_r7_network.node[15].content_store 	misses[15] 	9121
scalar tree_4_3_u07_r7_network.node[15].content_store 	decision_yes[15] 	95
scalar tree_4_3_u07_r7_network.node[15].content_store 	decision_no[15] 	9026
scalar tree_4_3_u07_r7_network.node[15].content_store 	decision_ratio[15] 	0.010415524613529
scalar tree_4_3_u07_r7_network.node[16].core_layer 	interests[16] 	12073
scalar tree_4_3_u07_r7_network.node[16].core_layer 	data[16] 	9085
scalar tree_4_3_u07_r7_network.node[16].content_store 	p_hit[16] 	0.24749440901184
scalar tree_4_3_u07_r7_network.node[16].content_store 	hits[16] 	2988
scalar tree_4_3_u07_r7_network.node[16].content_store 	misses[16] 	9085
scalar tree_4_3_u07_r7_network.node[16].content_store 	decision_yes[16] 	89
scalar tree_4_3_u07_r7_network.node[16].content_store 	decision_no[16] 	8996
scalar tree_4_3_u07_r7_network.node[16].content_store 	decision_ratio[16] 	0.0097963676389653
scalar tree_4_3_u07_r7_network.node[17].core_layer 	interests[17] 	11928
scalar tree_4_3_u07_r7_network.node[17].core_layer 	data[17] 	9098
scalar tree_4_3_u07_r7_network.node[17].content_store 	p_hit[17] 	0.23717303822938
scalar tree_4_3_u07_r7_network.node[17].content_store 	hits[17] 	2829
scalar tree_4_3_u07_r7_network.node[17].content_store 	misses[17] 	9099
scalar tree_4_3_u07_r7_network.node[17].content_store 	decision_yes[17] 	90
scalar tree_4_3_u07_r7_network.node[17].content_store 	decision_no[17] 	9008
scalar tree_4_3_u07_r7_network.node[17].content_store 	decision_ratio[17] 	0.0098922840184656
scalar tree_4_3_u07_r7_network.node[18].core_layer 	interests[18] 	12210
scalar tree_4_3_u07_r7_network.node[18].core_layer 	data[18] 	9327
scalar tree_4_3_u07_r7_network.node[18].content_store 	p_hit[18] 	0.23611793611794
scalar tree_4_3_u07_r7_network.node[18].content_store 	hits[18] 	2883
scalar tree_4_3_u07_r7_network.node[18].content_store 	misses[18] 	9327
scalar tree_4_3_u07_r7_network.node[18].content_store 	decision_yes[18] 	99
scalar tree_4_3_u07_r7_network.node[18].content_store 	decision_no[18] 	9228
scalar tree_4_3_u07_r7_network.node[18].content_store 	decision_ratio[18] 	0.010614345448697
scalar tree_4_3_u07_r7_network.node[19].core_layer 	interests[19] 	12027
scalar tree_4_3_u07_r7_network.node[19].core_layer 	data[19] 	9174
scalar tree_4_3_u07_r7_network.node[19].content_store 	p_hit[19] 	0.23721626340733
scalar tree_4_3_u07_r7_network.node[19].content_store 	hits[19] 	2853
scalar tree_4_3_u07_r7_network.node[19].content_store 	misses[19] 	9174
scalar tree_4_3_u07_r7_network.node[19].content_store 	decision_yes[19] 	86
scalar tree_4_3_u07_r7_network.node[19].content_store 	decision_no[19] 	9088
scalar tree_4_3_u07_r7_network.node[19].content_store 	decision_ratio[19] 	0.0093743187268367
scalar tree_4_3_u07_r7_network.node[20].core_layer 	interests[20] 	12052
scalar tree_4_3_u07_r7_network.node[20].core_layer 	data[20] 	8993
scalar tree_4_3_u07_r7_network.node[20].content_store 	p_hit[20] 	0.25381679389313
scalar tree_4_3_u07_r7_network.node[20].content_store 	hits[20] 	3059
scalar tree_4_3_u07_r7_network.node[20].content_store 	misses[20] 	8993
scalar tree_4_3_u07_r7_network.node[20].content_store 	decision_yes[20] 	103
scalar tree_4_3_u07_r7_network.node[20].content_store 	decision_no[20] 	8890
scalar tree_4_3_u07_r7_network.node[20].content_store 	decision_ratio[20] 	0.011453352607584
scalar tree_4_3_u07_r7_network.node[21].core_layer 	interests[21] 	11981
scalar tree_4_3_u07_r7_network.node[21].core_layer 	data[21] 	9200
scalar tree_4_3_u07_r7_network.node[21].content_store 	p_hit[21] 	0.2320340539187
scalar tree_4_3_u07_r7_network.node[21].content_store 	hits[21] 	2780
scalar tree_4_3_u07_r7_network.node[21].content_store 	misses[21] 	9201
scalar tree_4_3_u07_r7_network.node[21].content_store 	decision_yes[21] 	92
scalar tree_4_3_u07_r7_network.node[21].content_store 	decision_no[21] 	9108
scalar tree_4_3_u07_r7_network.node[21].content_store 	decision_ratio[21] 	0.01
scalar tree_4_3_u07_r7_network.node[22].core_layer 	interests[22] 	11764
scalar tree_4_3_u07_r7_network.node[22].core_layer 	data[22] 	8839
scalar tree_4_3_u07_r7_network.node[22].content_store 	p_hit[22] 	0.2486399183951
scalar tree_4_3_u07_r7_network.node[22].content_store 	hits[22] 	2925
scalar tree_4_3_u07_r7_network.node[22].content_store 	misses[22] 	8839
scalar tree_4_3_u07_r7_network.node[22].content_store 	decision_yes[22] 	100
scalar tree_4_3_u07_r7_network.node[22].content_store 	decision_no[22] 	8739
scalar tree_4_3_u07_r7_network.node[22].content_store 	decision_ratio[22] 	0.011313497001923
scalar tree_4_3_u07_r7_network.node[23].core_layer 	interests[23] 	11888
scalar tree_4_3_u07_r7_network.node[23].core_layer 	data[23] 	8979
scalar tree_4_3_u07_r7_network.node[23].content_store 	p_hit[23] 	0.24470053835801
scalar tree_4_3_u07_r7_network.node[23].content_store 	hits[23] 	2909
scalar tree_4_3_u07_r7_network.node[23].content_store 	misses[23] 	8979
scalar tree_4_3_u07_r7_network.node[23].content_store 	decision_yes[23] 	95
scalar tree_4_3_u07_r7_network.node[23].content_store 	decision_no[23] 	8884
scalar tree_4_3_u07_r7_network.node[23].content_store 	decision_ratio[23] 	0.010580242788729
scalar tree_4_3_u07_r7_network.node[24].core_layer 	interests[24] 	12284
scalar tree_4_3_u07_r7_network.node[24].core_layer 	data[24] 	9373
scalar tree_4_3_u07_r7_network.node[24].content_store 	p_hit[24] 	0.23697492673396
scalar tree_4_3_u07_r7_network.node[24].content_store 	hits[24] 	2911
scalar tree_4_3_u07_r7_network.node[24].content_store 	misses[24] 	9373
scalar tree_4_3_u07_r7_network.node[24].content_store 	decision_yes[24] 	100
scalar tree_4_3_u07_r7_network.node[24].content_store 	decision_no[24] 	9273
scalar tree_4_3_u07_r7_network.node[24].content_store 	decision_ratio[24] 	0.010668942707778
scalar tree_4_3_u07_r7_network.node[25].core_layer 	interests[25] 	12018
scalar tree_4_3_u07_r7_network.node[25].core_layer 	data[25] 	9151
scalar tree_4_3_u07_r7_network.node[25].content_store 	p_hit[25] 	0.23855882842403
scalar tree_4_3_u07_r7_network.node[25].content_store 	hits[25] 	2867
scalar tree_4_3_u07_r7_network.node[25].content_store 	misses[25] 	9151
scalar tree_4_3_u07_r7_network.node[25].content_store 	decision_yes[25] 	103
scalar tree_4_3_u07_r7_network.node[25].content_store 	decision_no[25] 	9048
scalar tree_4_3_u07_r7_network.node[25].content_store 	decision_ratio[25] 	0.011255600480822
scalar tree_4_3_u07_r7_network.node[26].core_layer 	interests[26] 	12004
scalar tree_4_3_u07_r7_network.node[26].core_layer 	data[26] 	9082
scalar tree_4_3_u07_r7_network.node[26].content_store 	p_hit[26] 	0.24341886037987
scalar tree_4_3_u07_r7_network.node[26].content_store 	hits[26] 	2922
scalar tree_4_3_u07_r7_network.node[26].content_store 	misses[26] 	9082
scalar tree_4_3_u07_r7_network.node[26].content_store 	decision_yes[26] 	104
scalar tree_4_3_u07_r7_network.node[26].content_store 	decision_no[26] 	8978
scalar tree_4_3_u07_r7_network.node[26].content_store 	decision_ratio[26] 	0.011451222197754
scalar tree_4_3_u07_r7_network.node[27].core_layer 	interests[27] 	11850
scalar tree_4_3_u07_r7_network.node[27].core_layer 	data[27] 	9139
scalar tree_4_3_u07_r7_network.node[27].content_store 	p_hit[27] 	0.22869198312236
scalar tree_4_3_u07_r7_network.node[27].content_store 	hits[27] 	2710
scalar tree_4_3_u07_r7_network.node[27].content_store 	misses[27] 	9140
scalar tree_4_3_u07_r7_network.node[27].content_store 	decision_yes[27] 	76
scalar tree_4_3_u07_r7_network.node[27].content_store 	decision_no[27] 	9063
scalar tree_4_3_u07_r7_network.node[27].content_store 	decision_ratio[27] 	0.0083160083160083
scalar tree_4_3_u07_r7_network.node[28].core_layer 	interests[28] 	11963
scalar tree_4_3_u07_r7_network.node[28].core_layer 	data[28] 	9013
scalar tree_4_3_u07_r7_network.node[28].content_store 	p_hit[28] 	0.24659366379671
scalar tree_4_3_u07_r7_network.node[28].content_store 	hits[28] 	2950
scalar tree_4_3_u07_r7_network.node[28].content_store 	misses[28] 	9013
scalar tree_4_3_u07_r7_network.node[28].content_store 	decision_yes[28] 	84
scalar tree_4_3_u07_r7_network.node[28].content_store 	decision_no[28] 	8929
scalar tree_4_3_u07_r7_network.node[28].content_store 	decision_ratio[28] 	0.0093198712970154
scalar tree_4_3_u07_r7_network.node[29].core_layer 	interests[29] 	11893
scalar tree_4_3_u07_r7_network.node[29].core_layer 	data[29] 	9028
scalar tree_4_3_u07_r7_network.node[29].content_store 	p_hit[29] 	0.24089800723114
scalar tree_4_3_u07_r7_network.node[29].content_store 	hits[29] 	2865
scalar tree_4_3_u07_r7_network.node[29].content_store 	misses[29] 	9028
scalar tree_4_3_u07_r7_network.node[29].content_store 	decision_yes[29] 	80
scalar tree_4_3_u07_r7_network.node[29].content_store 	decision_no[29] 	8948
scalar tree_4_3_u07_r7_network.node[29].content_store 	decision_ratio[29] 	0.0088613203367302
scalar tree_4_3_u07_r7_network.node[30].core_layer 	interests[30] 	12106
scalar tree_4_3_u07_r7_network.node[30].core_layer 	data[30] 	9367
scalar tree_4_3_u07_r7_network.node[30].content_store 	p_hit[30] 	0.22625144556418
scalar tree_4_3_u07_r7_network.node[30].content_store 	hits[30] 	2739
scalar tree_4_3_u07_r7_network.node[30].content_store 	misses[30] 	9367
scalar tree_4_3_u07_r7_network.node[30].content_store 	decision_yes[30] 	96
scalar tree_4_3_u07_r7_network.node[30].content_store 	decision_no[30] 	9271
scalar tree_4_3_u07_r7_network.node[30].content_store 	decision_ratio[30] 	0.010248745596242
scalar tree_4_3_u07_r7_network.node[31].core_layer 	interests[31] 	12010
scalar tree_4_3_u07_r7_network.node[31].core_layer 	data[31] 	9174
scalar tree_4_3_u07_r7_network.node[31].content_store 	p_hit[31] 	0.23621981681932
scalar tree_4_3_u07_r7_network.node[31].content_store 	hits[31] 	2837
scalar tree_4_3_u07_r7_network.node[31].content_store 	misses[31] 	9173
scalar tree_4_3_u07_r7_network.node[31].content_store 	decision_yes[31] 	85
scalar tree_4_3_u07_r7_network.node[31].content_store 	decision_no[31] 	9089
scalar tree_4_3_u07_r7_network.node[31].content_store 	decision_ratio[31] 	0.0092653150207107
scalar tree_4_3_u07_r7_network.node[32].core_layer 	interests[32] 	12237
scalar tree_4_3_u07_r7_network.node[32].core_layer 	data[32] 	9156
scalar tree_4_3_u07_r7_network.node[32].content_store 	p_hit[32] 	0.25177739642069
scalar tree_4_3_u07_r7_network.node[32].content_store 	hits[32] 	3081
scalar tree_4_3_u07_r7_network.node[32].content_store 	misses[32] 	9156
scalar tree_4_3_u07_r7_network.node[32].content_store 	decision_yes[32] 	86
scalar tree_4_3_u07_r7_network.node[32].content_store 	decision_no[32] 	9070
scalar tree_4_3_u07_r7_network.node[32].content_store 	decision_ratio[32] 	0.009392747924858
scalar tree_4_3_u07_r7_network.node[33].core_layer 	interests[33] 	11983
scalar tree_4_3_u07_r7_network.node[33].core_layer 	data[33] 	8898
scalar tree_4_3_u07_r7_network.node[33].content_store 	p_hit[33] 	0.25744805140616
scalar tree_4_3_u07_r7_network.node[33].content_store 	hits[33] 	3085
scalar tree_4_3_u07_r7_network.node[33].content_store 	misses[33] 	8898
scalar tree_4_3_u07_r7_network.node[33].content_store 	decision_yes[33] 	97
scalar tree_4_3_u07_r7_network.node[33].content_store 	decision_no[33] 	8801
scalar tree_4_3_u07_r7_network.node[33].content_store 	decision_ratio[33] 	0.010901326140706
scalar tree_4_3_u07_r7_network.node[34].core_layer 	interests[34] 	11943
scalar tree_4_3_u07_r7_network.node[34].core_layer 	data[34] 	9166
scalar tree_4_3_u07_r7_network.node[34].content_store 	p_hit[34] 	0.2323536799799
scalar tree_4_3_u07_r7_network.node[34].content_store 	hits[34] 	2775
scalar tree_4_3_u07_r7_network.node[34].content_store 	misses[34] 	9168
scalar tree_4_3_u07_r7_network.node[34].content_store 	decision_yes[34] 	92
scalar tree_4_3_u07_r7_network.node[34].content_store 	decision_no[34] 	9074
scalar tree_4_3_u07_r7_network.node[34].content_store 	decision_ratio[34] 	0.010037093606808
scalar tree_4_3_u07_r7_network.node[35].core_layer 	interests[35] 	11935
scalar tree_4_3_u07_r7_network.node[35].core_layer 	data[35] 	8950
scalar tree_4_3_u07_r7_network.node[35].content_store 	p_hit[35] 	0.2501047339757
scalar tree_4_3_u07_r7_network.node[35].content_store 	hits[35] 	2985
scalar tree_4_3_u07_r7_network.node[35].content_store 	misses[35] 	8950
scalar tree_4_3_u07_r7_network.node[35].content_store 	decision_yes[35] 	79
scalar tree_4_3_u07_r7_network.node[35].content_store 	decision_no[35] 	8871
scalar tree_4_3_u07_r7_network.node[35].content_store 	decision_ratio[35] 	0.0088268156424581
scalar tree_4_3_u07_r7_network.node[36].core_layer 	interests[36] 	12137
scalar tree_4_3_u07_r7_network.node[36].core_layer 	data[36] 	9038
scalar tree_4_3_u07_r7_network.node[36].content_store 	p_hit[36] 	0.25517014089149
scalar tree_4_3_u07_r7_network.node[36].content_store 	hits[36] 	3097
scalar tree_4_3_u07_r7_network.node[36].content_store 	misses[36] 	9040
scalar tree_4_3_u07_r7_network.node[36].content_store 	decision_yes[36] 	91
scalar tree_4_3_u07_r7_network.node[36].content_store 	decision_no[36] 	8947
scalar tree_4_3_u07_r7_network.node[36].content_store 	decision_ratio[36] 	0.010068599247621
scalar tree_4_3_u07_r7_network.node[37].core_layer 	interests[37] 	11978
scalar tree_4_3_u07_r7_network.node[37].core_layer 	data[37] 	9072
scalar tree_4_3_u07_r7_network.node[37].content_store 	p_hit[37] 	0.24261145433294
scalar tree_4_3_u07_r7_network.node[37].content_store 	hits[37] 	2906
scalar tree_4_3_u07_r7_network.node[37].content_store 	misses[37] 	9072
scalar tree_4_3_u07_r7_network.node[37].content_store 	decision_yes[37] 	77
scalar tree_4_3_u07_r7_network.node[37].content_store 	decision_no[37] 	8995
scalar tree_4_3_u07_r7_network.node[37].content_store 	decision_ratio[37] 	0.0084876543209877
scalar tree_4_3_u07_r7_network.node[38].core_layer 	interests[38] 	11885
scalar tree_4_3_u07_r7_network.node[38].core_layer 	data[38] 	9128
scalar tree_4_3_u07_r7_network.node[38].content_store 	p_hit[38] 	0.2318047959613
scalar tree_4_3_u07_r7_network.node[38].content_store 	hits[38] 	2755
scalar tree_4_3_u07_r7_network.node[38].content_store 	misses[38] 	9130
scalar tree_4_3_u07_r7_network.node[38].content_store 	decision_yes[38] 	81
scalar tree_4_3_u07_r7_network.node[38].content_store 	decision_no[38] 	9047
scalar tree_4_3_u07_r7_network.node[38].content_store 	decision_ratio[38] 	0.0088737949167397
scalar tree_4_3_u07_r7_network.node[39].core_layer 	interests[39] 	12091
scalar tree_4_3_u07_r7_network.node[39].core_layer 	data[39] 	9171
scalar tree_4_3_u07_r7_network.node[39].content_store 	p_hit[39] 	0.24150194359441
scalar tree_4_3_u07_r7_network.node[39].content_store 	hits[39] 	2920
scalar tree_4_3_u07_r7_network.node[39].content_store 	misses[39] 	9171
scalar tree_4_3_u07_r7_network.node[39].content_store 	decision_yes[39] 	93
scalar tree_4_3_u07_r7_network.node[39].content_store 	decision_no[39] 	9078
scalar tree_4_3_u07_r7_network.node[39].content_store 	decision_ratio[39] 	0.010140660778541
scalar tree_4_3_u07_r7_network.client[13] 	hdistance[13] 	2.8576388888889
scalar tree_4_3_u07_r7_network.client[13] 	downloads[13] 	11808
scalar tree_4_3_u07_r7_network.client[13] 	avg_time[13] 	0.004353316803
scalar tree_4_3_u07_r7_network.client[14] 	hdistance[14] 	2.886302294197
scalar tree_4_3_u07_r7_network.client[14] 	downloads[14] 	11856
scalar tree_4_3_u07_r7_network.client[14] 	avg_time[14] 	0.004396263595
scalar tree_4_3_u07_r7_network.client[15] 	hdistance[15] 	2.861324857812
scalar tree_4_3_u07_r7_network.client[15] 	downloads[15] 	11956
scalar tree_4_3_u07_r7_network.client[15] 	avg_time[15] 	0.004356004769
scalar tree_4_3_u07_r7_network.client[16] 	hdistance[16] 	2.8234076037439
scalar tree_4_3_u07_r7_network.client[16] 	downloads[16] 	12073
scalar tree_4_3_u07_r7_network.client[16] 	avg_time[16] 	0.004299508324
scalar tree_4_3_u07_r7_network.client[17] 	hdistance[17] 	2.8659344344764
scalar tree_4_3_u07_r7_network.client[17] 	downloads[17] 	11927
scalar tree_4_3_u07_r7_network.client[17] 	avg_time[17] 	0.004365958378
scalar tree_4_3_u07_r7_network.client[18] 	hdistance[18] 	2.8682227682228
scalar tree_4_3_u07_r7_network.client[18] 	downloads[18] 	12210
scalar tree_4_3_u07_r7_network.client[18] 	avg_time[18] 	0.004368711113
scalar tree_4_3_u07_r7_network.client[19] 	hdistance[19] 	2.8861727779164
scalar tree_4_3_u07_r7_network.client[19] 	downloads[19] 	12027
scalar tree_4_3_u07_r7_network.client[19] 	avg_time[19] 	0.004388622616
scalar tree_4_3_u07_r7_network.client[20] 	hdistance[20] 	2.827331563226
scalar tree_4_3_u07_r7_network.client[20] 	downloads[20] 	12052
scalar tree_4_3_u07_r7_network.client[20] 	avg_time[20] 	0.004299366373
scalar tree_4_3_u07_r7_network.client[21] 	hdistance[21] 	2.8613522537563
scalar tree_4_3_u07_r7_network.client[21] 	downloads[21] 	11980
scalar tree_4_3_u07_r7_network.client[21] 	avg_time[21] 	0.004356420645
scalar tree_4_3_u07_r7_network.client[22] 	hdistance[22] 	2.8271846310779
scalar tree_4_3_u07_r7_network.client[22] 	downloads[22] 	11764
scalar tree_4_3_u07_r7_network.client[22] 	avg_time[22] 	0.004300915099
scalar tree_4_3_u07_r7_network.client[23] 	hdistance[23] 	2.8416049798116
scalar tree_4_3_u07_r7_network.client[23] 	downloads[23] 	11888
scalar tree_4_3_u07_r7_network.client[23] 	avg_time[23] 	0.004324021256
scalar tree_4_3_u07_r7_network.client[24] 	hdistance[24] 	2.8495604037773
scalar tree_4_3_u07_r7_network.client[24] 	downloads[24] 	12284
scalar tree_4_3_u07_r7_network.client[24] 	avg_time[24] 	0.004339635473
scalar tree_4_3_u07_r7_network.client[25] 	hdistance[25] 	2.8516392078549
scalar tree_4_3_u07_r7_network.client[25] 	downloads[25] 	12018
scalar tree_4_3_u07_r7_network.client[25] 	avg_time[25] 	0.004346273081
scalar tree_4_3_u07_r7_network.client[26] 	hdistance[26] 	2.8383038987004
scalar tree_4_3_u07_r7_network.client[26] 	downloads[26] 	12004
scalar tree_4_3_u07_r7_network.client[26] 	avg_time[26] 	0.004319584892
scalar tree_4_3_u07_r7_network.client[27] 	hdistance[27] 	2.8662334374209
scalar tree_4_3_u07_r7_network.client[27] 	downloads[27] 	11849
scalar tree_4_3_u07_r7_network.client[27] 	avg_time[27] 	0.004368129364
scalar tree_4_3_u07_r7_network.client[28] 	hdistance[28] 	2.8234556549361
scalar tree_4_3_u07_r7_network.client[28] 	downloads[28] 	11963
scalar tree_4_3_u07_r7_network.client[28] 	avg_time[28] 	0.004299085846
scalar tree_4_3_u07_r7_network.client[29] 	hdistance[29] 	2.8244345413268
scalar tree_4_3_u07_r7_network.client[29] 	downloads[29] 	11893
scalar tree_4_3_u07_r7_network.client[29] 	avg_time[29] 	0.004301687106
scalar tree_4_3_u07_r7_network.client[30] 	hdistance[30] 	2.8742772179085
scalar tree_4_3_u07_r7_network.client[30] 	downloads[30] 	12106
scalar tree_4_3_u07_r7_network.client[30] 	avg_time[30] 	0.004383443213
scalar tree_4_3_u07_r7_network.client[31] 	hdistance[31] 	2.8717009408043
scalar tree_4_3_u07_r7_network.client[31] 	downloads[31] 	12011
scalar tree_4_3_u07_r7_network.client[31] 	avg_time[31] 	0.004368702163
scalar tree_4_3_u07_r7_network.client[32] 	hdistance[32] 	2.8198087766609
scalar tree_4_3_u07_r7_network.client[32] 	downloads[32] 	12237
scalar tree_4_3_u07_r7_network.client[32] 	avg_time[32] 	0.004291037079
scalar tree_4_3_u07_r7_network.client[33] 	hdistance[33] 	2.8212467662522
scalar tree_4_3_u07_r7_network.client[33] 	downloads[33] 	11983
scalar tree_4_3_u07_r7_network.client[33] 	avg_time[33] 	0.004286235866
scalar tree_4_3_u07_r7_network.client[34] 	hdistance[34] 	2.8867766518717
scalar tree_4_3_u07_r7_network.client[34] 	downloads[34] 	11941
scalar tree_4_3_u07_r7_network.client[34] 	avg_time[34] 	0.00439631728
scalar tree_4_3_u07_r7_network.client[35] 	hdistance[35] 	2.8371177209887
scalar tree_4_3_u07_r7_network.client[35] 	downloads[35] 	11935
scalar tree_4_3_u07_r7_network.client[35] 	avg_time[35] 	0.004313193504
scalar tree_4_3_u07_r7_network.client[36] 	hdistance[36] 	2.8117016893284
scalar tree_4_3_u07_r7_network.client[36] 	downloads[36] 	12135
scalar tree_4_3_u07_r7_network.client[36] 	avg_time[36] 	0.004282111165
scalar tree_4_3_u07_r7_network.client[37] 	hdistance[37] 	2.8598263483052
scalar tree_4_3_u07_r7_network.client[37] 	downloads[37] 	11978
scalar tree_4_3_u07_r7_network.client[37] 	avg_time[37] 	0.004352476536
scalar tree_4_3_u07_r7_network.client[38] 	hdistance[38] 	2.8408651014054
scalar tree_4_3_u07_r7_network.client[38] 	downloads[38] 	11883
scalar tree_4_3_u07_r7_network.client[38] 	avg_time[38] 	0.004335545264
scalar tree_4_3_u07_r7_network.client[39] 	hdistance[39] 	2.8590687288065
scalar tree_4_3_u07_r7_network.client[39] 	downloads[39] 	12091
scalar tree_4_3_u07_r7_network.client[39] 	avg_time[39] 	0.004354806312
