version 2
run General-134-20160902-22:38:37-4279
attr a 0.9
attr cd ffc0.2
attr configname General
attr cr lru
attr datetime 20160902-22:38:37
attr experiment General
attr fsize 1
attr inifile hw5115/scenario_Y/omnetp.ini
attr iterationvars "$name=tree_4_3, $un=06, $rep=15, $cd=ffc0.2, $cr=lru, $fsize=1, $a=0.9, $sl=nrr, $ttl=1000, $variance=0.05"
attr iterationvars2 "$name=tree_4_3, $un=06, $rep=15, $cd=ffc0.2, $cr=lru, $fsize=1, $a=0.9, $sl=nrr, $ttl=1000, $variance=0.05, $repetition=0"
attr measurement "$name=tree_4_3, $un=06, $rep=15, $cd=ffc0.2, $cr=lru, $fsize=1, $a=0.9, $sl=nrr, $ttl=1000, $variance=0.05"
attr name tree_4_3
attr network networks.${name}_u${un}_r${rep}_network
attr processid 4279
attr rep 15
attr repetition 0
attr replication #0
attr resultdir results
attr runnumber 134
attr seedset 15
attr sl nrr
attr ttl 1000
attr un 06
attr variance 0.05

scalar . 	a 	0.9
scalar . 	fsize 	1
scalar . 	rep 	15
scalar . 	ttl 	1000
scalar . 	un 	06
scalar . 	variance 	0.05
scalar tree_4_3_u06_r15_network.content_distribution 	repo-0 	0
scalar tree_4_3_u06_r15_network.content_distribution 	client-0 	13
scalar tree_4_3_u06_r15_network.content_distribution 	client-1 	14
scalar tree_4_3_u06_r15_network.content_distribution 	client-2 	15
scalar tree_4_3_u06_r15_network.content_distribution 	client-3 	16
scalar tree_4_3_u06_r15_network.content_distribution 	client-4 	17
scalar tree_4_3_u06_r15_network.content_distribution 	client-5 	18
scalar tree_4_3_u06_r15_network.content_distribution 	client-6 	19
scalar tree_4_3_u06_r15_network.content_distribution 	client-7 	20
scalar tree_4_3_u06_r15_network.content_distribution 	client-8 	21
scalar tree_4_3_u06_r15_network.content_distribution 	client-9 	22
scalar tree_4_3_u06_r15_network.content_distribution 	client-10 	23
scalar tree_4_3_u06_r15_network.content_distribution 	client-11 	24
scalar tree_4_3_u06_r15_network.content_distribution 	client-12 	25
scalar tree_4_3_u06_r15_network.content_distribution 	client-13 	26
scalar tree_4_3_u06_r15_network.content_distribution 	client-14 	27
scalar tree_4_3_u06_r15_network.content_distribution 	client-15 	28
scalar tree_4_3_u06_r15_network.content_distribution 	client-16 	29
scalar tree_4_3_u06_r15_network.content_distribution 	client-17 	30
scalar tree_4_3_u06_r15_network.content_distribution 	client-18 	31
scalar tree_4_3_u06_r15_network.content_distribution 	client-19 	32
scalar tree_4_3_u06_r15_network.content_distribution 	client-20 	33
scalar tree_4_3_u06_r15_network.content_distribution 	client-21 	34
scalar tree_4_3_u06_r15_network.content_distribution 	client-22 	35
scalar tree_4_3_u06_r15_network.content_distribution 	client-23 	36
scalar tree_4_3_u06_r15_network.content_distribution 	client-24 	37
scalar tree_4_3_u06_r15_network.content_distribution 	client-25 	38
scalar tree_4_3_u06_r15_network.content_distribution 	client-26 	39
scalar tree_4_3_u06_r15_network.content_distribution 	repo-0_card 	100000
scalar tree_4_3_u06_r15_network.content_distribution 	repo-0_price 	0
scalar tree_4_3_u06_r15_network.statistics 	stabilization_time 	1923.2
scalar tree_4_3_u06_r15_network.statistics 	p_hit 	0.23510162587806
scalar tree_4_3_u06_r15_network.statistics 	interests 	24670.55
scalar tree_4_3_u06_r15_network.statistics 	data 	16571.65
scalar tree_4_3_u06_r15_network.statistics 	hdistance 	2.6024980124121
scalar tree_4_3_u06_r15_network.statistics 	avg_time 	0.004092306303
scalar tree_4_3_u06_r15_network.statistics 	downloads 	323963
scalar tree_4_3_u06_r15_network.statistics 	total_cost 	0
scalar tree_4_3_u06_r15_network.statistics 	total_replicas 	100000
scalar tree_4_3_u06_r15_network.statistics 	inner_hit 	0.443667949735
scalar tree_4_3_u06_r15_network.node[0].core_layer 	interests[0] 	183513
scalar tree_4_3_u06_r15_network.node[0].core_layer 	repo_load[0] 	180231
scalar tree_4_3_u06_r15_network.node[0].core_layer 	data[0] 	0
scalar tree_4_3_u06_r15_network.node[0].core_layer 	repo_int[0] 	180231
scalar tree_4_3_u06_r15_network.node[0].content_store 	p_hit[0] 	0.017884291576074
scalar tree_4_3_u06_r15_network.node[0].content_store 	hits[0] 	3282
scalar tree_4_3_u06_r15_network.node[0].content_store 	misses[0] 	180231
scalar tree_4_3_u06_r15_network.node[0].content_store 	decision_yes[0] 	146
scalar tree_4_3_u06_r15_network.node[0].content_store 	decision_no[0] 	180085
scalar tree_4_3_u06_r15_network.node[0].content_store 	decision_ratio[0] 	0.00081007151932797
scalar tree_4_3_u06_r15_network.node[1].core_layer 	interests[1] 	125378
scalar tree_4_3_u06_r15_network.node[1].core_layer 	data[1] 	122035
scalar tree_4_3_u06_r15_network.node[1].content_store 	p_hit[1] 	0.026647418207341
scalar tree_4_3_u06_r15_network.node[1].content_store 	hits[1] 	3341
scalar tree_4_3_u06_r15_network.node[1].content_store 	misses[1] 	122037
scalar tree_4_3_u06_r15_network.node[1].content_store 	decision_yes[1] 	137
scalar tree_4_3_u06_r15_network.node[1].content_store 	decision_no[1] 	121898
scalar tree_4_3_u06_r15_network.node[1].content_store 	decision_ratio[1] 	0.001122628754046
scalar tree_4_3_u06_r15_network.node[2].core_layer 	interests[2] 	40073
scalar tree_4_3_u06_r15_network.node[2].core_layer 	data[2] 	37402
scalar tree_4_3_u06_r15_network.node[2].content_store 	p_hit[2] 	0.066678312080453
scalar tree_4_3_u06_r15_network.node[2].content_store 	hits[2] 	2672
scalar tree_4_3_u06_r15_network.node[2].content_store 	misses[2] 	37401
scalar tree_4_3_u06_r15_network.node[2].content_store 	decision_yes[2] 	42
scalar tree_4_3_u06_r15_network.node[2].content_store 	decision_no[2] 	37360
scalar tree_4_3_u06_r15_network.node[2].content_store 	decision_ratio[2] 	0.0011229346024277
scalar tree_4_3_u06_r15_network.node[3].core_layer 	interests[3] 	44279
scalar tree_4_3_u06_r15_network.node[3].core_layer 	data[3] 	40588
scalar tree_4_3_u06_r15_network.node[3].content_store 	p_hit[3] 	0.083357799408297
scalar tree_4_3_u06_r15_network.node[3].content_store 	hits[3] 	3691
scalar tree_4_3_u06_r15_network.node[3].content_store 	misses[3] 	40588
scalar tree_4_3_u06_r15_network.node[3].content_store 	decision_yes[3] 	107
scalar tree_4_3_u06_r15_network.node[3].content_store 	decision_no[3] 	40481
scalar tree_4_3_u06_r15_network.node[3].content_store 	decision_ratio[3] 	0.0026362471666502
scalar tree_4_3_u06_r15_network.node[4].core_layer 	interests[4] 	43267
scalar tree_4_3_u06_r15_network.node[4].core_layer 	data[4] 	40074
scalar tree_4_3_u06_r15_network.node[4].content_store 	p_hit[4] 	0.073820694755819
scalar tree_4_3_u06_r15_network.node[4].content_store 	hits[4] 	3194
scalar tree_4_3_u06_r15_network.node[4].content_store 	misses[4] 	40073
scalar tree_4_3_u06_r15_network.node[4].content_store 	decision_yes[4] 	82
scalar tree_4_3_u06_r15_network.node[4].content_store 	decision_no[4] 	39992
scalar tree_4_3_u06_r15_network.node[4].content_store 	decision_ratio[4] 	0.0020462145031691
scalar tree_4_3_u06_r15_network.node[5].core_layer 	interests[5] 	19814
scalar tree_4_3_u06_r15_network.node[5].core_layer 	data[5] 	16838
scalar tree_4_3_u06_r15_network.node[5].content_store 	p_hit[5] 	0.15014636115878
scalar tree_4_3_u06_r15_network.node[5].content_store 	hits[5] 	2975
scalar tree_4_3_u06_r15_network.node[5].content_store 	misses[5] 	16839
scalar tree_4_3_u06_r15_network.node[5].content_store 	decision_yes[5] 	36
scalar tree_4_3_u06_r15_network.node[5].content_store 	decision_no[5] 	16802
scalar tree_4_3_u06_r15_network.node[5].content_store 	decision_ratio[5] 	0.0021380211426535
scalar tree_4_3_u06_r15_network.node[6].core_layer 	interests[6] 	21898
scalar tree_4_3_u06_r15_network.node[6].core_layer 	data[6] 	18287
scalar tree_4_3_u06_r15_network.node[6].content_store 	p_hit[6] 	0.16485523792127
scalar tree_4_3_u06_r15_network.node[6].content_store 	hits[6] 	3610
scalar tree_4_3_u06_r15_network.node[6].content_store 	misses[6] 	18288
scalar tree_4_3_u06_r15_network.node[6].content_store 	decision_yes[6] 	61
scalar tree_4_3_u06_r15_network.node[6].content_store 	decision_no[6] 	18226
scalar tree_4_3_u06_r15_network.node[6].content_store 	decision_ratio[6] 	0.0033357029583857
scalar tree_4_3_u06_r15_network.node[7].core_layer 	interests[7] 	35751
scalar tree_4_3_u06_r15_network.node[7].core_layer 	data[7] 	32617
scalar tree_4_3_u06_r15_network.node[7].content_store 	p_hit[7] 	0.087633912338116
scalar tree_4_3_u06_r15_network.node[7].content_store 	hits[7] 	3133
scalar tree_4_3_u06_r15_network.node[7].content_store 	misses[7] 	32618
scalar tree_4_3_u06_r15_network.node[7].content_store 	decision_yes[7] 	65
scalar tree_4_3_u06_r15_network.node[7].content_store 	decision_no[7] 	32552
scalar tree_4_3_u06_r15_network.node[7].content_store 	decision_ratio[7] 	0.0019928258270227
scalar tree_4_3_u06_r15_network.node[8].core_layer 	interests[8] 	26607
scalar tree_4_3_u06_r15_network.node[8].core_layer 	data[8] 	24322
scalar tree_4_3_u06_r15_network.node[8].content_store 	p_hit[8] 	0.085917239824106
scalar tree_4_3_u06_r15_network.node[8].content_store 	hits[8] 	2286
scalar tree_4_3_u06_r15_network.node[8].content_store 	misses[8] 	24321
scalar tree_4_3_u06_r15_network.node[8].content_store 	decision_yes[8] 	38
scalar tree_4_3_u06_r15_network.node[8].content_store 	decision_no[8] 	24284
scalar tree_4_3_u06_r15_network.node[8].content_store 	decision_ratio[8] 	0.0015623715155004
scalar tree_4_3_u06_r15_network.node[9].core_layer 	interests[9] 	22008
scalar tree_4_3_u06_r15_network.node[9].core_layer 	data[9] 	18461
scalar tree_4_3_u06_r15_network.node[9].content_store 	p_hit[9] 	0.16116866593966
scalar tree_4_3_u06_r15_network.node[9].content_store 	hits[9] 	3547
scalar tree_4_3_u06_r15_network.node[9].content_store 	misses[9] 	18461
scalar tree_4_3_u06_r15_network.node[9].content_store 	decision_yes[9] 	57
scalar tree_4_3_u06_r15_network.node[9].content_store 	decision_no[9] 	18404
scalar tree_4_3_u06_r15_network.node[9].content_store 	decision_ratio[9] 	0.0030875900547099
scalar tree_4_3_u06_r15_network.node[10].core_layer 	interests[10] 	36303
scalar tree_4_3_u06_r15_network.node[10].core_layer 	data[10] 	32589
scalar tree_4_3_u06_r15_network.node[10].content_store 	p_hit[10] 	0.10230559457896
scalar tree_4_3_u06_r15_network.node[10].content_store 	hits[10] 	3714
scalar tree_4_3_u06_r15_network.node[10].content_store 	misses[10] 	32589
scalar tree_4_3_u06_r15_network.node[10].content_store 	decision_yes[10] 	62
scalar tree_4_3_u06_r15_network.node[10].content_store 	decision_no[10] 	32527
scalar tree_4_3_u06_r15_network.node[10].content_store 	decision_ratio[10] 	0.0019024824327227
scalar tree_4_3_u06_r15_network.node[11].core_layer 	interests[11] 	28283
scalar tree_4_3_u06_r15_network.node[11].core_layer 	data[11] 	25154
scalar tree_4_3_u06_r15_network.node[11].content_store 	p_hit[11] 	0.11063182830676
scalar tree_4_3_u06_r15_network.node[11].content_store 	hits[11] 	3129
scalar tree_4_3_u06_r15_network.node[11].content_store 	misses[11] 	25154
scalar tree_4_3_u06_r15_network.node[11].content_store 	decision_yes[11] 	56
scalar tree_4_3_u06_r15_network.node[11].content_store 	decision_no[11] 	25098
scalar tree_4_3_u06_r15_network.node[11].content_store 	decision_ratio[11] 	0.002226286077761
scalar tree_4_3_u06_r15_network.node[12].core_layer 	interests[12] 	19867
scalar tree_4_3_u06_r15_network.node[12].core_layer 	data[12] 	17210
scalar tree_4_3_u06_r15_network.node[12].content_store 	p_hit[12] 	0.13373936678915
scalar tree_4_3_u06_r15_network.node[12].content_store 	hits[12] 	2657
scalar tree_4_3_u06_r15_network.node[12].content_store 	misses[12] 	17210
scalar tree_4_3_u06_r15_network.node[12].content_store 	decision_yes[12] 	40
scalar tree_4_3_u06_r15_network.node[12].content_store 	decision_no[12] 	17170
scalar tree_4_3_u06_r15_network.node[12].content_store 	decision_ratio[12] 	0.0023242300987798
scalar tree_4_3_u06_r15_network.node[13].core_layer 	interests[13] 	12521
scalar tree_4_3_u06_r15_network.node[13].core_layer 	data[13] 	8737
scalar tree_4_3_u06_r15_network.node[13].content_store 	p_hit[13] 	0.30221228336395
scalar tree_4_3_u06_r15_network.node[13].content_store 	hits[13] 	3784
scalar tree_4_3_u06_r15_network.node[13].content_store 	misses[13] 	8737
scalar tree_4_3_u06_r15_network.node[13].content_store 	decision_yes[13] 	24
scalar tree_4_3_u06_r15_network.node[13].content_store 	decision_no[13] 	8713
scalar tree_4_3_u06_r15_network.node[13].content_store 	decision_ratio[13] 	0.0027469383083438
scalar tree_4_3_u06_r15_network.node[14].core_layer 	interests[14] 	12421
scalar tree_4_3_u06_r15_network.node[14].core_layer 	data[14] 	8722
scalar tree_4_3_u06_r15_network.node[14].content_store 	p_hit[14] 	0.2979631269624
scalar tree_4_3_u06_r15_network.node[14].content_store 	hits[14] 	3701
scalar tree_4_3_u06_r15_network.node[14].content_store 	misses[14] 	8720
scalar tree_4_3_u06_r15_network.node[14].content_store 	decision_yes[14] 	23
scalar tree_4_3_u06_r15_network.node[14].content_store 	decision_no[14] 	8699
scalar tree_4_3_u06_r15_network.node[14].content_store 	decision_ratio[14] 	0.0026370098601238
scalar tree_4_3_u06_r15_network.node[15].core_layer 	interests[15] 	12344
scalar tree_4_3_u06_r15_network.node[15].core_layer 	data[15] 	8616
scalar tree_4_3_u06_r15_network.node[15].content_store 	p_hit[15] 	0.30200907323396
scalar tree_4_3_u06_r15_network.node[15].content_store 	hits[15] 	3728
scalar tree_4_3_u06_r15_network.node[15].content_store 	misses[15] 	8616
scalar tree_4_3_u06_r15_network.node[15].content_store 	decision_yes[15] 	21
scalar tree_4_3_u06_r15_network.node[15].content_store 	decision_no[15] 	8595
scalar tree_4_3_u06_r15_network.node[15].content_store 	decision_ratio[15] 	0.0024373259052925
scalar tree_4_3_u06_r15_network.node[16].core_layer 	interests[16] 	13074
scalar tree_4_3_u06_r15_network.node[16].core_layer 	data[16] 	8913
scalar tree_4_3_u06_r15_network.node[16].content_store 	p_hit[16] 	0.31826525929325
scalar tree_4_3_u06_r15_network.node[16].content_store 	hits[16] 	4161
scalar tree_4_3_u06_r15_network.node[16].content_store 	misses[16] 	8913
scalar tree_4_3_u06_r15_network.node[16].content_store 	decision_yes[16] 	22
scalar tree_4_3_u06_r15_network.node[16].content_store 	decision_no[16] 	8891
scalar tree_4_3_u06_r15_network.node[16].content_store 	decision_ratio[16] 	0.0024683047234377
scalar tree_4_3_u06_r15_network.node[17].core_layer 	interests[17] 	12202
scalar tree_4_3_u06_r15_network.node[17].core_layer 	data[17] 	8692
scalar tree_4_3_u06_r15_network.node[17].content_store 	p_hit[17] 	0.28765776102278
scalar tree_4_3_u06_r15_network.node[17].content_store 	hits[17] 	3510
scalar tree_4_3_u06_r15_network.node[17].content_store 	misses[17] 	8692
scalar tree_4_3_u06_r15_network.node[17].content_store 	decision_yes[17] 	26
scalar tree_4_3_u06_r15_network.node[17].content_store 	decision_no[17] 	8666
scalar tree_4_3_u06_r15_network.node[17].content_store 	decision_ratio[17] 	0.0029912563276576
scalar tree_4_3_u06_r15_network.node[18].core_layer 	interests[18] 	12928
scalar tree_4_3_u06_r15_network.node[18].core_layer 	data[18] 	8860
scalar tree_4_3_u06_r15_network.node[18].content_store 	p_hit[18] 	0.31466584158416
scalar tree_4_3_u06_r15_network.node[18].content_store 	hits[18] 	4068
scalar tree_4_3_u06_r15_network.node[18].content_store 	misses[18] 	8860
scalar tree_4_3_u06_r15_network.node[18].content_store 	decision_yes[18] 	19
scalar tree_4_3_u06_r15_network.node[18].content_store 	decision_no[18] 	8841
scalar tree_4_3_u06_r15_network.node[18].content_store 	decision_ratio[18] 	0.0021444695259594
scalar tree_4_3_u06_r15_network.node[19].core_layer 	interests[19] 	12883
scalar tree_4_3_u06_r15_network.node[19].core_layer 	data[19] 	8742
scalar tree_4_3_u06_r15_network.node[19].content_store 	p_hit[19] 	0.32143134363114
scalar tree_4_3_u06_r15_network.node[19].content_store 	hits[19] 	4141
scalar tree_4_3_u06_r15_network.node[19].content_store 	misses[19] 	8742
scalar tree_4_3_u06_r15_network.node[19].content_store 	decision_yes[19] 	19
scalar tree_4_3_u06_r15_network.node[19].content_store 	decision_no[19] 	8723
scalar tree_4_3_u06_r15_network.node[19].content_store 	decision_ratio[19] 	0.0021734156943491
scalar tree_4_3_u06_r15_network.node[20].core_layer 	interests[20] 	12386
scalar tree_4_3_u06_r15_network.node[20].core_layer 	data[20] 	8741
scalar tree_4_3_u06_r15_network.node[20].content_store 	p_hit[20] 	0.29428386888422
scalar tree_4_3_u06_r15_network.node[20].content_store 	hits[20] 	3645
scalar tree_4_3_u06_r15_network.node[20].content_store 	misses[20] 	8741
scalar tree_4_3_u06_r15_network.node[20].content_store 	decision_yes[20] 	18
scalar tree_4_3_u06_r15_network.node[20].content_store 	decision_no[20] 	8723
scalar tree_4_3_u06_r15_network.node[20].content_store 	decision_ratio[20] 	0.0020592609541242
scalar tree_4_3_u06_r15_network.node[21].core_layer 	interests[21] 	12305
scalar tree_4_3_u06_r15_network.node[21].core_layer 	data[21] 	8790
scalar tree_4_3_u06_r15_network.node[21].content_store 	p_hit[21] 	0.28565623730191
scalar tree_4_3_u06_r15_network.node[21].content_store 	hits[21] 	3515
scalar tree_4_3_u06_r15_network.node[21].content_store 	misses[21] 	8790
scalar tree_4_3_u06_r15_network.node[21].content_store 	decision_yes[21] 	20
scalar tree_4_3_u06_r15_network.node[21].content_store 	decision_no[21] 	8770
scalar tree_4_3_u06_r15_network.node[21].content_store 	decision_ratio[21] 	0.0022753128555176
scalar tree_4_3_u06_r15_network.node[22].core_layer 	interests[22] 	12461
scalar tree_4_3_u06_r15_network.node[22].core_layer 	data[22] 	8774
scalar tree_4_3_u06_r15_network.node[22].content_store 	p_hit[22] 	0.29596340582618
scalar tree_4_3_u06_r15_network.node[22].content_store 	hits[22] 	3688
scalar tree_4_3_u06_r15_network.node[22].content_store 	misses[22] 	8773
scalar tree_4_3_u06_r15_network.node[22].content_store 	decision_yes[22] 	21
scalar tree_4_3_u06_r15_network.node[22].content_store 	decision_no[22] 	8753
scalar tree_4_3_u06_r15_network.node[22].content_store 	decision_ratio[22] 	0.0023934351493048
scalar tree_4_3_u06_r15_network.node[23].core_layer 	interests[23] 	12701
scalar tree_4_3_u06_r15_network.node[23].core_layer 	data[23] 	8723
scalar tree_4_3_u06_r15_network.node[23].content_store 	p_hit[23] 	0.31320368474923
scalar tree_4_3_u06_r15_network.node[23].content_store 	hits[23] 	3978
scalar tree_4_3_u06_r15_network.node[23].content_store 	misses[23] 	8723
scalar tree_4_3_u06_r15_network.node[23].content_store 	decision_yes[23] 	19
scalar tree_4_3_u06_r15_network.node[23].content_store 	decision_no[23] 	8704
scalar tree_4_3_u06_r15_network.node[23].content_store 	decision_ratio[23] 	0.0021781497191333
scalar tree_4_3_u06_r15_network.node[24].core_layer 	interests[24] 	12478
scalar tree_4_3_u06_r15_network.node[24].core_layer 	data[24] 	8789
scalar tree_4_3_u06_r15_network.node[24].content_store 	p_hit[24] 	0.29564032697548
scalar tree_4_3_u06_r15_network.node[24].content_store 	hits[24] 	3689
scalar tree_4_3_u06_r15_network.node[24].content_store 	misses[24] 	8789
scalar tree_4_3_u06_r15_network.node[24].content_store 	decision_yes[24] 	22
scalar tree_4_3_u06_r15_network.node[24].content_store 	decision_no[24] 	8767
scalar tree_4_3_u06_r15_network.node[24].content_store 	decision_ratio[24] 	0.0025031289111389
scalar tree_4_3_u06_r15_network.node[25].core_layer 	interests[25] 	12299
scalar tree_4_3_u06_r15_network.node[25].core_layer 	data[25] 	8882
scalar tree_4_3_u06_r15_network.node[25].content_store 	p_hit[25] 	0.27782746564761
scalar tree_4_3_u06_r15_network.node[25].content_store 	hits[25] 	3417
scalar tree_4_3_u06_r15_network.node[25].content_store 	misses[25] 	8882
scalar tree_4_3_u06_r15_network.node[25].content_store 	decision_yes[25] 	31
scalar tree_4_3_u06_r15_network.node[25].content_store 	decision_no[25] 	8851
scalar tree_4_3_u06_r15_network.node[25].content_store 	decision_ratio[25] 	0.0034902049088043
scalar tree_4_3_u06_r15_network.node[26].core_layer 	interests[26] 	12516
scalar tree_4_3_u06_r15_network.node[26].core_layer 	data[26] 	8810
scalar tree_4_3_u06_r15_network.node[26].content_store 	p_hit[26] 	0.29610099073186
scalar tree_4_3_u06_r15_network.node[26].content_store 	hits[26] 	3706
scalar tree_4_3_u06_r15_network.node[26].content_store 	misses[26] 	8810
scalar tree_4_3_u06_r15_network.node[26].content_store 	decision_yes[26] 	24
scalar tree_4_3_u06_r15_network.node[26].content_store 	decision_no[26] 	8786
scalar tree_4_3_u06_r15_network.node[26].content_store 	decision_ratio[26] 	0.0027241770715096
scalar tree_4_3_u06_r15_network.node[27].core_layer 	interests[27] 	12725
scalar tree_4_3_u06_r15_network.node[27].core_layer 	data[27] 	8764
scalar tree_4_3_u06_r15_network.node[27].content_store 	p_hit[27] 	0.31135559921415
scalar tree_4_3_u06_r15_network.node[27].content_store 	hits[27] 	3962
scalar tree_4_3_u06_r15_network.node[27].content_store 	misses[27] 	8763
scalar tree_4_3_u06_r15_network.node[27].content_store 	decision_yes[27] 	28
scalar tree_4_3_u06_r15_network.node[27].content_store 	decision_no[27] 	8736
scalar tree_4_3_u06_r15_network.node[27].content_store 	decision_ratio[27] 	0.0031948881789137
scalar tree_4_3_u06_r15_network.node[28].core_layer 	interests[28] 	12745
scalar tree_4_3_u06_r15_network.node[28].core_layer 	data[28] 	8762
scalar tree_4_3_u06_r15_network.node[28].content_store 	p_hit[28] 	0.31243624950961
scalar tree_4_3_u06_r15_network.node[28].content_store 	hits[28] 	3982
scalar tree_4_3_u06_r15_network.node[28].content_store 	misses[28] 	8763
scalar tree_4_3_u06_r15_network.node[28].content_store 	decision_yes[28] 	17
scalar tree_4_3_u06_r15_network.node[28].content_store 	decision_no[28] 	8745
scalar tree_4_3_u06_r15_network.node[28].content_store 	decision_ratio[28] 	0.0019401963022141
scalar tree_4_3_u06_r15_network.node[29].core_layer 	interests[29] 	12561
scalar tree_4_3_u06_r15_network.node[29].core_layer 	data[29] 	8816
scalar tree_4_3_u06_r15_network.node[29].content_store 	p_hit[29] 	0.29814505214553
scalar tree_4_3_u06_r15_network.node[29].content_store 	hits[29] 	3745
scalar tree_4_3_u06_r15_network.node[29].content_store 	misses[29] 	8816
scalar tree_4_3_u06_r15_network.node[29].content_store 	decision_yes[29] 	33
scalar tree_4_3_u06_r15_network.node[29].content_store 	decision_no[29] 	8783
scalar tree_4_3_u06_r15_network.node[29].content_store 	decision_ratio[29] 	0.0037431941923775
scalar tree_4_3_u06_r15_network.node[30].core_layer 	interests[30] 	12498
scalar tree_4_3_u06_r15_network.node[30].core_layer 	data[30] 	8909
scalar tree_4_3_u06_r15_network.node[30].content_store 	p_hit[30] 	0.28716594655145
scalar tree_4_3_u06_r15_network.node[30].content_store 	hits[30] 	3589
scalar tree_4_3_u06_r15_network.node[30].content_store 	misses[30] 	8909
scalar tree_4_3_u06_r15_network.node[30].content_store 	decision_yes[30] 	26
scalar tree_4_3_u06_r15_network.node[30].content_store 	decision_no[30] 	8883
scalar tree_4_3_u06_r15_network.node[30].content_store 	decision_ratio[30] 	0.0029183971265013
scalar tree_4_3_u06_r15_network.node[31].core_layer 	interests[31] 	12515
scalar tree_4_3_u06_r15_network.node[31].core_layer 	data[31] 	8897
scalar tree_4_3_u06_r15_network.node[31].content_store 	p_hit[31] 	0.28909308829405
scalar tree_4_3_u06_r15_network.node[31].content_store 	hits[31] 	3618
scalar tree_4_3_u06_r15_network.node[31].content_store 	misses[31] 	8897
scalar tree_4_3_u06_r15_network.node[31].content_store 	decision_yes[31] 	16
scalar tree_4_3_u06_r15_network.node[31].content_store 	decision_no[31] 	8881
scalar tree_4_3_u06_r15_network.node[31].content_store 	decision_ratio[31] 	0.0017983589974149
scalar tree_4_3_u06_r15_network.node[32].core_layer 	interests[32] 	12853
scalar tree_4_3_u06_r15_network.node[32].core_layer 	data[32] 	8817
scalar tree_4_3_u06_r15_network.node[32].content_store 	p_hit[32] 	0.31401229284992
scalar tree_4_3_u06_r15_network.node[32].content_store 	hits[32] 	4036
scalar tree_4_3_u06_r15_network.node[32].content_store 	misses[32] 	8817
scalar tree_4_3_u06_r15_network.node[32].content_store 	decision_yes[32] 	16
scalar tree_4_3_u06_r15_network.node[32].content_store 	decision_no[32] 	8801
scalar tree_4_3_u06_r15_network.node[32].content_store 	decision_ratio[32] 	0.0018146761937167
scalar tree_4_3_u06_r15_network.node[33].core_layer 	interests[33] 	12941
scalar tree_4_3_u06_r15_network.node[33].core_layer 	data[33] 	8871
scalar tree_4_3_u06_r15_network.node[33].content_store 	p_hit[33] 	0.31450428869485
scalar tree_4_3_u06_r15_network.node[33].content_store 	hits[33] 	4070
scalar tree_4_3_u06_r15_network.node[33].content_store 	misses[33] 	8871
scalar tree_4_3_u06_r15_network.node[33].content_store 	decision_yes[33] 	26
scalar tree_4_3_u06_r15_network.node[33].content_store 	decision_no[33] 	8845
scalar tree_4_3_u06_r15_network.node[33].content_store 	decision_ratio[33] 	0.0029308984330966
scalar tree_4_3_u06_r15_network.node[34].core_layer 	interests[34] 	12884
scalar tree_4_3_u06_r15_network.node[34].core_layer 	data[34] 	8769
scalar tree_4_3_u06_r15_network.node[34].content_store 	p_hit[34] 	0.31938838869916
scalar tree_4_3_u06_r15_network.node[34].content_store 	hits[34] 	4115
scalar tree_4_3_u06_r15_network.node[34].content_store 	misses[34] 	8769
scalar tree_4_3_u06_r15_network.node[34].content_store 	decision_yes[34] 	29
scalar tree_4_3_u06_r15_network.node[34].content_store 	decision_no[34] 	8740
scalar tree_4_3_u06_r15_network.node[34].content_store 	decision_ratio[34] 	0.0033071045729274
scalar tree_4_3_u06_r15_network.node[35].core_layer 	interests[35] 	12448
scalar tree_4_3_u06_r15_network.node[35].core_layer 	data[35] 	8697
scalar tree_4_3_u06_r15_network.node[35].content_store 	p_hit[35] 	0.30133354755784
scalar tree_4_3_u06_r15_network.node[35].content_store 	hits[35] 	3751
scalar tree_4_3_u06_r15_network.node[35].content_store 	misses[35] 	8697
scalar tree_4_3_u06_r15_network.node[35].content_store 	decision_yes[35] 	28
scalar tree_4_3_u06_r15_network.node[35].content_store 	decision_no[35] 	8669
scalar tree_4_3_u06_r15_network.node[35].content_store 	decision_ratio[35] 	0.0032195009773485
scalar tree_4_3_u06_r15_network.node[36].core_layer 	interests[36] 	12476
scalar tree_4_3_u06_r15_network.node[36].core_layer 	data[36] 	8876
scalar tree_4_3_u06_r15_network.node[36].content_store 	p_hit[36] 	0.28855402372555
scalar tree_4_3_u06_r15_network.node[36].content_store 	hits[36] 	3600
scalar tree_4_3_u06_r15_network.node[36].content_store 	misses[36] 	8876
scalar tree_4_3_u06_r15_network.node[36].content_store 	decision_yes[36] 	14
scalar tree_4_3_u06_r15_network.node[36].content_store 	decision_no[36] 	8862
scalar tree_4_3_u06_r15_network.node[36].content_store 	decision_ratio[36] 	0.0015772870662461
scalar tree_4_3_u06_r15_network.node[37].core_layer 	interests[37] 	12494
scalar tree_4_3_u06_r15_network.node[37].core_layer 	data[37] 	8854
scalar tree_4_3_u06_r15_network.node[37].content_store 	p_hit[37] 	0.2913398431247
scalar tree_4_3_u06_r15_network.node[37].content_store 	hits[37] 	3640
scalar tree_4_3_u06_r15_network.node[37].content_store 	misses[37] 	8854
scalar tree_4_3_u06_r15_network.node[37].content_store 	decision_yes[37] 	24
scalar tree_4_3_u06_r15_network.node[37].content_store 	decision_no[37] 	8830
scalar tree_4_3_u06_r15_network.node[37].content_store 	decision_ratio[37] 	0.0027106392590919
scalar tree_4_3_u06_r15_network.node[38].core_layer 	interests[38] 	12851
scalar tree_4_3_u06_r15_network.node[38].core_layer 	data[38] 	8816
scalar tree_4_3_u06_r15_network.node[38].content_store 	p_hit[38] 	0.31398334759941
scalar tree_4_3_u06_r15_network.node[38].content_store 	hits[38] 	4035
scalar tree_4_3_u06_r15_network.node[38].content_store 	misses[38] 	8816
scalar tree_4_3_u06_r15_network.node[38].content_store 	decision_yes[38] 	14
scalar tree_4_3_u06_r15_network.node[38].content_store 	decision_no[38] 	8802
scalar tree_4_3_u06_r15_network.node[38].content_store 	decision_ratio[38] 	0.0015880217785844
scalar tree_4_3_u06_r15_network.node[39].core_layer 	interests[39] 	12271
scalar tree_4_3_u06_r15_network.node[39].core_layer 	data[39] 	8650
scalar tree_4_3_u06_r15_network.node[39].content_store 	p_hit[39] 	0.29508597506316
scalar tree_4_3_u06_r15_network.node[39].content_store 	hits[39] 	3621
scalar tree_4_3_u06_r15_network.node[39].content_store 	misses[39] 	8650
scalar tree_4_3_u06_r15_network.node[39].content_store 	decision_yes[39] 	24
scalar tree_4_3_u06_r15_network.node[39].content_store 	decision_no[39] 	8626
scalar tree_4_3_u06_r15_network.node[39].content_store 	decision_ratio[39] 	0.0027745664739884
scalar tree_4_3_u06_r15_network.client[13] 	hdistance[13] 	2.6279769365756
scalar tree_4_3_u06_r15_network.client[13] 	downloads[13] 	11967
scalar tree_4_3_u06_r15_network.client[13] 	avg_time[13] 	0.004119158034
scalar tree_4_3_u06_r15_network.client[14] 	hdistance[14] 	2.6196313902093
scalar tree_4_3_u06_r15_network.client[14] 	downloads[14] 	11991
scalar tree_4_3_u06_r15_network.client[14] 	avg_time[14] 	0.004111080349
scalar tree_4_3_u06_r15_network.client[15] 	hdistance[15] 	2.6124915483435
scalar tree_4_3_u06_r15_network.client[15] 	downloads[15] 	11832
scalar tree_4_3_u06_r15_network.client[15] 	avg_time[15] 	0.004099557544
scalar tree_4_3_u06_r15_network.client[16] 	hdistance[16] 	2.5785950413223
scalar tree_4_3_u06_r15_network.client[16] 	downloads[16] 	12100
scalar tree_4_3_u06_r15_network.client[16] 	avg_time[16] 	0.004051809363
scalar tree_4_3_u06_r15_network.client[17] 	hdistance[17] 	2.6389192828886
scalar tree_4_3_u06_r15_network.client[17] 	downloads[17] 	11881
scalar tree_4_3_u06_r15_network.client[17] 	avg_time[17] 	0.004163787965
scalar tree_4_3_u06_r15_network.client[18] 	hdistance[18] 	2.5450629555997
scalar tree_4_3_u06_r15_network.client[18] 	downloads[18] 	12072
scalar tree_4_3_u06_r15_network.client[18] 	avg_time[18] 	0.004009108998
scalar tree_4_3_u06_r15_network.client[19] 	hdistance[19] 	2.5309964025768
scalar tree_4_3_u06_r15_network.client[19] 	downloads[19] 	11953
scalar tree_4_3_u06_r15_network.client[19] 	avg_time[19] 	0.003988350948
scalar tree_4_3_u06_r15_network.client[20] 	hdistance[20] 	2.622341766832
scalar tree_4_3_u06_r15_network.client[20] 	downloads[20] 	11897
scalar tree_4_3_u06_r15_network.client[20] 	avg_time[20] 	0.00414675671
scalar tree_4_3_u06_r15_network.client[21] 	hdistance[21] 	2.6356595673036
scalar tree_4_3_u06_r15_network.client[21] 	downloads[21] 	11879
scalar tree_4_3_u06_r15_network.client[21] 	avg_time[21] 	0.004167351162
scalar tree_4_3_u06_r15_network.client[22] 	hdistance[22] 	2.6259714214089
scalar tree_4_3_u06_r15_network.client[22] 	downloads[22] 	11967
scalar tree_4_3_u06_r15_network.client[22] 	avg_time[22] 	0.004141511023
scalar tree_4_3_u06_r15_network.client[23] 	hdistance[23] 	2.5536430481283
scalar tree_4_3_u06_r15_network.client[23] 	downloads[23] 	11968
scalar tree_4_3_u06_r15_network.client[23] 	avg_time[23] 	0.004012029102
scalar tree_4_3_u06_r15_network.client[24] 	hdistance[24] 	2.6134391272006
scalar tree_4_3_u06_r15_network.client[24] 	downloads[24] 	12099
scalar tree_4_3_u06_r15_network.client[24] 	avg_time[24] 	0.004115047794
scalar tree_4_3_u06_r15_network.client[25] 	hdistance[25] 	2.6768588137009
scalar tree_4_3_u06_r15_network.client[25] 	downloads[25] 	11970
scalar tree_4_3_u06_r15_network.client[25] 	avg_time[25] 	0.004186296098
scalar tree_4_3_u06_r15_network.client[26] 	hdistance[26] 	2.6289230260984
scalar tree_4_3_u06_r15_network.client[26] 	downloads[26] 	12108
scalar tree_4_3_u06_r15_network.client[26] 	avg_time[26] 	0.004109015794
scalar tree_4_3_u06_r15_network.client[27] 	hdistance[27] 	2.5578066136459
scalar tree_4_3_u06_r15_network.client[27] 	downloads[27] 	11945
scalar tree_4_3_u06_r15_network.client[27] 	avg_time[27] 	0.004025279595
scalar tree_4_3_u06_r15_network.client[28] 	hdistance[28] 	2.5803828561748
scalar tree_4_3_u06_r15_network.client[28] 	downloads[28] 	11806
scalar tree_4_3_u06_r15_network.client[28] 	avg_time[28] 	0.004064751676
scalar tree_4_3_u06_r15_network.client[29] 	hdistance[29] 	2.6051825482242
scalar tree_4_3_u06_r15_network.client[29] 	downloads[29] 	12079
scalar tree_4_3_u06_r15_network.client[29] 	avg_time[29] 	0.004114079269
scalar tree_4_3_u06_r15_network.client[30] 	hdistance[30] 	2.6324248198161
scalar tree_4_3_u06_r15_network.client[30] 	downloads[30] 	12071
scalar tree_4_3_u06_r15_network.client[30] 	avg_time[30] 	0.004152594132
scalar tree_4_3_u06_r15_network.client[31] 	hdistance[31] 	2.6082669077163
scalar tree_4_3_u06_r15_network.client[31] 	downloads[31] 	12169
scalar tree_4_3_u06_r15_network.client[31] 	avg_time[31] 	0.004124575823
scalar tree_4_3_u06_r15_network.client[32] 	hdistance[32] 	2.5606989069228
scalar tree_4_3_u06_r15_network.client[32] 	downloads[32] 	12076
scalar tree_4_3_u06_r15_network.client[32] 	avg_time[32] 	0.004016227535
scalar tree_4_3_u06_r15_network.client[33] 	hdistance[33] 	2.5777851845679
scalar tree_4_3_u06_r15_network.client[33] 	downloads[33] 	12001
scalar tree_4_3_u06_r15_network.client[33] 	avg_time[33] 	0.004062158489
scalar tree_4_3_u06_r15_network.client[34] 	hdistance[34] 	2.5230514096186
scalar tree_4_3_u06_r15_network.client[34] 	downloads[34] 	12060
scalar tree_4_3_u06_r15_network.client[34] 	avg_time[34] 	0.003970312077
scalar tree_4_3_u06_r15_network.client[35] 	hdistance[35] 	2.6136458420218
scalar tree_4_3_u06_r15_network.client[35] 	downloads[35] 	11989
scalar tree_4_3_u06_r15_network.client[35] 	avg_time[35] 	0.004091580951
scalar tree_4_3_u06_r15_network.client[36] 	hdistance[36] 	2.6680780406808
scalar tree_4_3_u06_r15_network.client[36] 	downloads[36] 	12045
scalar tree_4_3_u06_r15_network.client[36] 	avg_time[36] 	0.004180154735
scalar tree_4_3_u06_r15_network.client[37] 	hdistance[37] 	2.6377099362952
scalar tree_4_3_u06_r15_network.client[37] 	downloads[37] 	12087
scalar tree_4_3_u06_r15_network.client[37] 	avg_time[37] 	0.004137831032
scalar tree_4_3_u06_r15_network.client[38] 	hdistance[38] 	2.5752138881967
scalar tree_4_3_u06_r15_network.client[38] 	downloads[38] 	12039
scalar tree_4_3_u06_r15_network.client[38] 	avg_time[38] 	0.004024915998
scalar tree_4_3_u06_r15_network.client[39] 	hdistance[39] 	2.6166890530558
scalar tree_4_3_u06_r15_network.client[39] 	downloads[39] 	11912
scalar tree_4_3_u06_r15_network.client[39] 	avg_time[39] 	0.00410694799
