version 2
run General-127-20160902-22:22:59-4279
attr a 0.9
attr cd ffc0.2
attr configname General
attr cr lru
attr datetime 20160902-22:22:59
attr experiment General
attr fsize 1
attr inifile hw5115/scenario_Y/omnetp.ini
attr iterationvars "$name=tree_4_3, $un=06, $rep=8, $cd=ffc0.2, $cr=lru, $fsize=1, $a=0.9, $sl=nrr, $ttl=1000, $variance=0.05"
attr iterationvars2 "$name=tree_4_3, $un=06, $rep=8, $cd=ffc0.2, $cr=lru, $fsize=1, $a=0.9, $sl=nrr, $ttl=1000, $variance=0.05, $repetition=0"
attr measurement "$name=tree_4_3, $un=06, $rep=8, $cd=ffc0.2, $cr=lru, $fsize=1, $a=0.9, $sl=nrr, $ttl=1000, $variance=0.05"
attr name tree_4_3
attr network networks.${name}_u${un}_r${rep}_network
attr processid 4279
attr rep 8
attr repetition 0
attr replication #0
attr resultdir results
attr runnumber 127
attr seedset 8
attr sl nrr
attr ttl 1000
attr un 06
attr variance 0.05

scalar . 	a 	0.9
scalar . 	fsize 	1
scalar . 	rep 	8
scalar . 	ttl 	1000
scalar . 	un 	06
scalar . 	variance 	0.05
scalar tree_4_3_u06_r8_network.content_distribution 	repo-0 	0
scalar tree_4_3_u06_r8_network.content_distribution 	client-0 	13
scalar tree_4_3_u06_r8_network.content_distribution 	client-1 	14
scalar tree_4_3_u06_r8_network.content_distribution 	client-2 	15
scalar tree_4_3_u06_r8_network.content_distribution 	client-3 	16
scalar tree_4_3_u06_r8_network.content_distribution 	client-4 	17
scalar tree_4_3_u06_r8_network.content_distribution 	client-5 	18
scalar tree_4_3_u06_r8_network.content_distribution 	client-6 	19
scalar tree_4_3_u06_r8_network.content_distribution 	client-7 	20
scalar tree_4_3_u06_r8_network.content_distribution 	client-8 	21
scalar tree_4_3_u06_r8_network.content_distribution 	client-9 	22
scalar tree_4_3_u06_r8_network.content_distribution 	client-10 	23
scalar tree_4_3_u06_r8_network.content_distribution 	client-11 	24
scalar tree_4_3_u06_r8_network.content_distribution 	client-12 	25
scalar tree_4_3_u06_r8_network.content_distribution 	client-13 	26
scalar tree_4_3_u06_r8_network.content_distribution 	client-14 	27
scalar tree_4_3_u06_r8_network.content_distribution 	client-15 	28
scalar tree_4_3_u06_r8_network.content_distribution 	client-16 	29
scalar tree_4_3_u06_r8_network.content_distribution 	client-17 	30
scalar tree_4_3_u06_r8_network.content_distribution 	client-18 	31
scalar tree_4_3_u06_r8_network.content_distribution 	client-19 	32
scalar tree_4_3_u06_r8_network.content_distribution 	client-20 	33
scalar tree_4_3_u06_r8_network.content_distribution 	client-21 	34
scalar tree_4_3_u06_r8_network.content_distribution 	client-22 	35
scalar tree_4_3_u06_r8_network.content_distribution 	client-23 	36
scalar tree_4_3_u06_r8_network.content_distribution 	client-24 	37
scalar tree_4_3_u06_r8_network.content_distribution 	client-25 	38
scalar tree_4_3_u06_r8_network.content_distribution 	client-26 	39
scalar tree_4_3_u06_r8_network.content_distribution 	repo-0_card 	100000
scalar tree_4_3_u06_r8_network.content_distribution 	repo-0_price 	0
scalar tree_4_3_u06_r8_network.statistics 	stabilization_time 	2257.2
scalar tree_4_3_u06_r8_network.statistics 	p_hit 	0.23551136842538
scalar tree_4_3_u06_r8_network.statistics 	interests 	24651.65
scalar tree_4_3_u06_r8_network.statistics 	data 	16545.55
scalar tree_4_3_u06_r8_network.statistics 	hdistance 	2.6061691788653
scalar tree_4_3_u06_r8_network.statistics 	avg_time 	0.004082108094
scalar tree_4_3_u06_r8_network.statistics 	downloads 	324254
scalar tree_4_3_u06_r8_network.statistics 	total_cost 	0
scalar tree_4_3_u06_r8_network.statistics 	total_replicas 	100000
scalar tree_4_3_u06_r8_network.statistics 	inner_hit 	0.43494297680214
scalar tree_4_3_u06_r8_network.node[0].core_layer 	interests[0] 	186725
scalar tree_4_3_u06_r8_network.node[0].core_layer 	repo_load[0] 	183222
scalar tree_4_3_u06_r8_network.node[0].core_layer 	data[0] 	0
scalar tree_4_3_u06_r8_network.node[0].core_layer 	repo_int[0] 	183222
scalar tree_4_3_u06_r8_network.node[0].content_store 	p_hit[0] 	0.018760208863302
scalar tree_4_3_u06_r8_network.node[0].content_store 	hits[0] 	3503
scalar tree_4_3_u06_r8_network.node[0].content_store 	misses[0] 	183222
scalar tree_4_3_u06_r8_network.node[0].content_store 	decision_yes[0] 	176
scalar tree_4_3_u06_r8_network.node[0].content_store 	decision_no[0] 	183046
scalar tree_4_3_u06_r8_network.node[0].content_store 	decision_ratio[0] 	0.00096058333606226
scalar tree_4_3_u06_r8_network.node[1].core_layer 	interests[1] 	95353
scalar tree_4_3_u06_r8_network.node[1].core_layer 	data[1] 	92998
scalar tree_4_3_u06_r8_network.node[1].content_store 	p_hit[1] 	0.024697702222269
scalar tree_4_3_u06_r8_network.node[1].content_store 	hits[1] 	2355
scalar tree_4_3_u06_r8_network.node[1].content_store 	misses[1] 	92998
scalar tree_4_3_u06_r8_network.node[1].content_store 	decision_yes[1] 	94
scalar tree_4_3_u06_r8_network.node[1].content_store 	decision_no[1] 	92904
scalar tree_4_3_u06_r8_network.node[1].content_store 	decision_ratio[1] 	0.0010107744252565
scalar tree_4_3_u06_r8_network.node[2].core_layer 	interests[2] 	39094
scalar tree_4_3_u06_r8_network.node[2].core_layer 	data[2] 	37245
scalar tree_4_3_u06_r8_network.node[2].content_store 	p_hit[2] 	0.047321839668491
scalar tree_4_3_u06_r8_network.node[2].content_store 	hits[2] 	1850
scalar tree_4_3_u06_r8_network.node[2].content_store 	misses[2] 	37244
scalar tree_4_3_u06_r8_network.node[2].content_store 	decision_yes[2] 	50
scalar tree_4_3_u06_r8_network.node[2].content_store 	decision_no[2] 	37195
scalar tree_4_3_u06_r8_network.node[2].content_store 	decision_ratio[2] 	0.0013424620754464
scalar tree_4_3_u06_r8_network.node[3].core_layer 	interests[3] 	73898
scalar tree_4_3_u06_r8_network.node[3].core_layer 	data[3] 	70021
scalar tree_4_3_u06_r8_network.node[3].content_store 	p_hit[3] 	0.05246420742104
scalar tree_4_3_u06_r8_network.node[3].content_store 	hits[3] 	3877
scalar tree_4_3_u06_r8_network.node[3].content_store 	misses[3] 	70021
scalar tree_4_3_u06_r8_network.node[3].content_store 	decision_yes[3] 	108
scalar tree_4_3_u06_r8_network.node[3].content_store 	decision_no[3] 	69913
scalar tree_4_3_u06_r8_network.node[3].content_store 	decision_ratio[3] 	0.0015423944245298
scalar tree_4_3_u06_r8_network.node[4].core_layer 	interests[4] 	41873
scalar tree_4_3_u06_r8_network.node[4].core_layer 	data[4] 	39297
scalar tree_4_3_u06_r8_network.node[4].content_store 	p_hit[4] 	0.061543237885989
scalar tree_4_3_u06_r8_network.node[4].content_store 	hits[4] 	2577
scalar tree_4_3_u06_r8_network.node[4].content_store 	misses[4] 	39296
scalar tree_4_3_u06_r8_network.node[4].content_store 	decision_yes[4] 	70
scalar tree_4_3_u06_r8_network.node[4].content_store 	decision_no[4] 	39227
scalar tree_4_3_u06_r8_network.node[4].content_store 	decision_ratio[4] 	0.001781306461053
scalar tree_4_3_u06_r8_network.node[5].core_layer 	interests[5] 	18332
scalar tree_4_3_u06_r8_network.node[5].core_layer 	data[5] 	16050
scalar tree_4_3_u06_r8_network.node[5].content_store 	p_hit[5] 	0.12448178049313
scalar tree_4_3_u06_r8_network.node[5].content_store 	hits[5] 	2282
scalar tree_4_3_u06_r8_network.node[5].content_store 	misses[5] 	16050
scalar tree_4_3_u06_r8_network.node[5].content_store 	decision_yes[5] 	37
scalar tree_4_3_u06_r8_network.node[5].content_store 	decision_no[5] 	16013
scalar tree_4_3_u06_r8_network.node[5].content_store 	decision_ratio[5] 	0.0023052959501558
scalar tree_4_3_u06_r8_network.node[6].core_layer 	interests[6] 	23800
scalar tree_4_3_u06_r8_network.node[6].core_layer 	data[6] 	19692
scalar tree_4_3_u06_r8_network.node[6].content_store 	p_hit[6] 	0.17260504201681
scalar tree_4_3_u06_r8_network.node[6].content_store 	hits[6] 	4108
scalar tree_4_3_u06_r8_network.node[6].content_store 	misses[6] 	19692
scalar tree_4_3_u06_r8_network.node[6].content_store 	decision_yes[6] 	78
scalar tree_4_3_u06_r8_network.node[6].content_store 	decision_no[6] 	19614
scalar tree_4_3_u06_r8_network.node[6].content_store 	decision_ratio[6] 	0.0039609993906155
scalar tree_4_3_u06_r8_network.node[7].core_layer 	interests[7] 	34533
scalar tree_4_3_u06_r8_network.node[7].core_layer 	data[7] 	31629
scalar tree_4_3_u06_r8_network.node[7].content_store 	p_hit[7] 	0.084064517997278
scalar tree_4_3_u06_r8_network.node[7].content_store 	hits[7] 	2903
scalar tree_4_3_u06_r8_network.node[7].content_store 	misses[7] 	31630
scalar tree_4_3_u06_r8_network.node[7].content_store 	decision_yes[7] 	51
scalar tree_4_3_u06_r8_network.node[7].content_store 	decision_no[7] 	31578
scalar tree_4_3_u06_r8_network.node[7].content_store 	decision_ratio[7] 	0.0016124442758228
scalar tree_4_3_u06_r8_network.node[8].core_layer 	interests[8] 	27082
scalar tree_4_3_u06_r8_network.node[8].core_layer 	data[8] 	24896
scalar tree_4_3_u06_r8_network.node[8].content_store 	p_hit[8] 	0.080717819954213
scalar tree_4_3_u06_r8_network.node[8].content_store 	hits[8] 	2186
scalar tree_4_3_u06_r8_network.node[8].content_store 	misses[8] 	24896
scalar tree_4_3_u06_r8_network.node[8].content_store 	decision_yes[8] 	54
scalar tree_4_3_u06_r8_network.node[8].content_store 	decision_no[8] 	24842
scalar tree_4_3_u06_r8_network.node[8].content_store 	decision_ratio[8] 	0.0021690231362468
scalar tree_4_3_u06_r8_network.node[9].core_layer 	interests[9] 	22215
scalar tree_4_3_u06_r8_network.node[9].core_layer 	data[9] 	18553
scalar tree_4_3_u06_r8_network.node[9].content_store 	p_hit[9] 	0.16488858879136
scalar tree_4_3_u06_r8_network.node[9].content_store 	hits[9] 	3663
scalar tree_4_3_u06_r8_network.node[9].content_store 	misses[9] 	18552
scalar tree_4_3_u06_r8_network.node[9].content_store 	decision_yes[9] 	77
scalar tree_4_3_u06_r8_network.node[9].content_store 	decision_no[9] 	18476
scalar tree_4_3_u06_r8_network.node[9].content_store 	decision_ratio[9] 	0.0041502721931763
scalar tree_4_3_u06_r8_network.node[10].core_layer 	interests[10] 	43680
scalar tree_4_3_u06_r8_network.node[10].core_layer 	data[10] 	40551
scalar tree_4_3_u06_r8_network.node[10].content_store 	p_hit[10] 	0.071634615384615
scalar tree_4_3_u06_r8_network.node[10].content_store 	hits[10] 	3129
scalar tree_4_3_u06_r8_network.node[10].content_store 	misses[10] 	40551
scalar tree_4_3_u06_r8_network.node[10].content_store 	decision_yes[10] 	65
scalar tree_4_3_u06_r8_network.node[10].content_store 	decision_no[10] 	40486
scalar tree_4_3_u06_r8_network.node[10].content_store 	decision_ratio[10] 	0.0016029197800301
scalar tree_4_3_u06_r8_network.node[11].core_layer 	interests[11] 	27648
scalar tree_4_3_u06_r8_network.node[11].core_layer 	data[11] 	25048
scalar tree_4_3_u06_r8_network.node[11].content_store 	p_hit[11] 	0.094039351851852
scalar tree_4_3_u06_r8_network.node[11].content_store 	hits[11] 	2600
scalar tree_4_3_u06_r8_network.node[11].content_store 	misses[11] 	25048
scalar tree_4_3_u06_r8_network.node[11].content_store 	decision_yes[11] 	55
scalar tree_4_3_u06_r8_network.node[11].content_store 	decision_no[11] 	24993
scalar tree_4_3_u06_r8_network.node[11].content_store 	decision_ratio[11] 	0.0021957840945385
scalar tree_4_3_u06_r8_network.node[12].core_layer 	interests[12] 	11430
scalar tree_4_3_u06_r8_network.node[12].core_layer 	data[12] 	8783
scalar tree_4_3_u06_r8_network.node[12].content_store 	p_hit[12] 	0.23158355205599
scalar tree_4_3_u06_r8_network.node[12].content_store 	hits[12] 	2647
scalar tree_4_3_u06_r8_network.node[12].content_store 	misses[12] 	8783
scalar tree_4_3_u06_r8_network.node[12].content_store 	decision_yes[12] 	29
scalar tree_4_3_u06_r8_network.node[12].content_store 	decision_no[12] 	8754
scalar tree_4_3_u06_r8_network.node[12].content_store 	decision_ratio[12] 	0.0033018330866447
scalar tree_4_3_u06_r8_network.node[13].core_layer 	interests[13] 	12335
scalar tree_4_3_u06_r8_network.node[13].core_layer 	data[13] 	8781
scalar tree_4_3_u06_r8_network.node[13].content_store 	p_hit[13] 	0.288123226591
scalar tree_4_3_u06_r8_network.node[13].content_store 	hits[13] 	3554
scalar tree_4_3_u06_r8_network.node[13].content_store 	misses[13] 	8781
scalar tree_4_3_u06_r8_network.node[13].content_store 	decision_yes[13] 	24
scalar tree_4_3_u06_r8_network.node[13].content_store 	decision_no[13] 	8757
scalar tree_4_3_u06_r8_network.node[13].content_store 	decision_ratio[13] 	0.0027331738981893
scalar tree_4_3_u06_r8_network.node[14].core_layer 	interests[14] 	12689
scalar tree_4_3_u06_r8_network.node[14].core_layer 	data[14] 	8821
scalar tree_4_3_u06_r8_network.node[14].content_store 	p_hit[14] 	0.30490976436283
scalar tree_4_3_u06_r8_network.node[14].content_store 	hits[14] 	3869
scalar tree_4_3_u06_r8_network.node[14].content_store 	misses[14] 	8820
scalar tree_4_3_u06_r8_network.node[14].content_store 	decision_yes[14] 	20
scalar tree_4_3_u06_r8_network.node[14].content_store 	decision_no[14] 	8801
scalar tree_4_3_u06_r8_network.node[14].content_store 	decision_ratio[14] 	0.0022673166307675
scalar tree_4_3_u06_r8_network.node[15].core_layer 	interests[15] 	12975
scalar tree_4_3_u06_r8_network.node[15].core_layer 	data[15] 	8859
scalar tree_4_3_u06_r8_network.node[15].content_store 	p_hit[15] 	0.31722543352601
scalar tree_4_3_u06_r8_network.node[15].content_store 	hits[15] 	4116
scalar tree_4_3_u06_r8_network.node[15].content_store 	misses[15] 	8859
scalar tree_4_3_u06_r8_network.node[15].content_store 	decision_yes[15] 	27
scalar tree_4_3_u06_r8_network.node[15].content_store 	decision_no[15] 	8832
scalar tree_4_3_u06_r8_network.node[15].content_store 	decision_ratio[15] 	0.0030477480528276
scalar tree_4_3_u06_r8_network.node[16].core_layer 	interests[16] 	12648
scalar tree_4_3_u06_r8_network.node[16].core_layer 	data[16] 	8820
scalar tree_4_3_u06_r8_network.node[16].content_store 	p_hit[16] 	0.30265654648956
scalar tree_4_3_u06_r8_network.node[16].content_store 	hits[16] 	3828
scalar tree_4_3_u06_r8_network.node[16].content_store 	misses[16] 	8820
scalar tree_4_3_u06_r8_network.node[16].content_store 	decision_yes[16] 	18
scalar tree_4_3_u06_r8_network.node[16].content_store 	decision_no[16] 	8802
scalar tree_4_3_u06_r8_network.node[16].content_store 	decision_ratio[16] 	0.0020408163265306
scalar tree_4_3_u06_r8_network.node[17].core_layer 	interests[17] 	12125
scalar tree_4_3_u06_r8_network.node[17].core_layer 	data[17] 	8699
scalar tree_4_3_u06_r8_network.node[17].content_store 	p_hit[17] 	0.28255670103093
scalar tree_4_3_u06_r8_network.node[17].content_store 	hits[17] 	3426
scalar tree_4_3_u06_r8_network.node[17].content_store 	misses[17] 	8699
scalar tree_4_3_u06_r8_network.node[17].content_store 	decision_yes[17] 	18
scalar tree_4_3_u06_r8_network.node[17].content_store 	decision_no[17] 	8681
scalar tree_4_3_u06_r8_network.node[17].content_store 	decision_ratio[17] 	0.0020692033567077
scalar tree_4_3_u06_r8_network.node[18].core_layer 	interests[18] 	12953
scalar tree_4_3_u06_r8_network.node[18].core_layer 	data[18] 	8873
scalar tree_4_3_u06_r8_network.node[18].content_store 	p_hit[18] 	0.31498494557245
scalar tree_4_3_u06_r8_network.node[18].content_store 	hits[18] 	4080
scalar tree_4_3_u06_r8_network.node[18].content_store 	misses[18] 	8873
scalar tree_4_3_u06_r8_network.node[18].content_store 	decision_yes[18] 	22
scalar tree_4_3_u06_r8_network.node[18].content_store 	decision_no[18] 	8851
scalar tree_4_3_u06_r8_network.node[18].content_store 	decision_ratio[18] 	0.0024794319846726
scalar tree_4_3_u06_r8_network.node[19].core_layer 	interests[19] 	13063
scalar tree_4_3_u06_r8_network.node[19].core_layer 	data[19] 	8807
scalar tree_4_3_u06_r8_network.node[19].content_store 	p_hit[19] 	0.32580571078619
scalar tree_4_3_u06_r8_network.node[19].content_store 	hits[19] 	4256
scalar tree_4_3_u06_r8_network.node[19].content_store 	misses[19] 	8807
scalar tree_4_3_u06_r8_network.node[19].content_store 	decision_yes[19] 	18
scalar tree_4_3_u06_r8_network.node[19].content_store 	decision_no[19] 	8789
scalar tree_4_3_u06_r8_network.node[19].content_store 	decision_ratio[19] 	0.0020438287725673
scalar tree_4_3_u06_r8_network.node[20].core_layer 	interests[20] 	12716
scalar tree_4_3_u06_r8_network.node[20].core_layer 	data[20] 	8841
scalar tree_4_3_u06_r8_network.node[20].content_store 	p_hit[20] 	0.3047341931425
scalar tree_4_3_u06_r8_network.node[20].content_store 	hits[20] 	3875
scalar tree_4_3_u06_r8_network.node[20].content_store 	misses[20] 	8841
scalar tree_4_3_u06_r8_network.node[20].content_store 	decision_yes[20] 	20
scalar tree_4_3_u06_r8_network.node[20].content_store 	decision_no[20] 	8821
scalar tree_4_3_u06_r8_network.node[20].content_store 	decision_ratio[20] 	0.0022621875353467
scalar tree_4_3_u06_r8_network.node[21].core_layer 	interests[21] 	12627
scalar tree_4_3_u06_r8_network.node[21].core_layer 	data[21] 	8727
scalar tree_4_3_u06_r8_network.node[21].content_store 	p_hit[21] 	0.30886196246139
scalar tree_4_3_u06_r8_network.node[21].content_store 	hits[21] 	3900
scalar tree_4_3_u06_r8_network.node[21].content_store 	misses[21] 	8727
scalar tree_4_3_u06_r8_network.node[21].content_store 	decision_yes[21] 	25
scalar tree_4_3_u06_r8_network.node[21].content_store 	decision_no[21] 	8702
scalar tree_4_3_u06_r8_network.node[21].content_store 	decision_ratio[21] 	0.00286467285436
scalar tree_4_3_u06_r8_network.node[22].core_layer 	interests[22] 	12218
scalar tree_4_3_u06_r8_network.node[22].core_layer 	data[22] 	8683
scalar tree_4_3_u06_r8_network.node[22].content_store 	p_hit[22] 	0.28932722213128
scalar tree_4_3_u06_r8_network.node[22].content_store 	hits[22] 	3535
scalar tree_4_3_u06_r8_network.node[22].content_store 	misses[22] 	8683
scalar tree_4_3_u06_r8_network.node[22].content_store 	decision_yes[22] 	23
scalar tree_4_3_u06_r8_network.node[22].content_store 	decision_no[22] 	8660
scalar tree_4_3_u06_r8_network.node[22].content_store 	decision_ratio[22] 	0.0026488540826903
scalar tree_4_3_u06_r8_network.node[23].core_layer 	interests[23] 	13111
scalar tree_4_3_u06_r8_network.node[23].core_layer 	data[23] 	9008
scalar tree_4_3_u06_r8_network.node[23].content_store 	p_hit[23] 	0.31294333002822
scalar tree_4_3_u06_r8_network.node[23].content_store 	hits[23] 	4103
scalar tree_4_3_u06_r8_network.node[23].content_store 	misses[23] 	9008
scalar tree_4_3_u06_r8_network.node[23].content_store 	decision_yes[23] 	21
scalar tree_4_3_u06_r8_network.node[23].content_store 	decision_no[23] 	8987
scalar tree_4_3_u06_r8_network.node[23].content_store 	decision_ratio[23] 	0.0023312611012433
scalar tree_4_3_u06_r8_network.node[24].core_layer 	interests[24] 	12739
scalar tree_4_3_u06_r8_network.node[24].core_layer 	data[24] 	8683
scalar tree_4_3_u06_r8_network.node[24].content_store 	p_hit[24] 	0.31839233848811
scalar tree_4_3_u06_r8_network.node[24].content_store 	hits[24] 	4056
scalar tree_4_3_u06_r8_network.node[24].content_store 	misses[24] 	8683
scalar tree_4_3_u06_r8_network.node[24].content_store 	decision_yes[24] 	25
scalar tree_4_3_u06_r8_network.node[24].content_store 	decision_no[24] 	8658
scalar tree_4_3_u06_r8_network.node[24].content_store 	decision_ratio[24] 	0.0028791892203156
scalar tree_4_3_u06_r8_network.node[25].core_layer 	interests[25] 	12234
scalar tree_4_3_u06_r8_network.node[25].core_layer 	data[25] 	8599
scalar tree_4_3_u06_r8_network.node[25].content_store 	p_hit[25] 	0.29712277260095
scalar tree_4_3_u06_r8_network.node[25].content_store 	hits[25] 	3635
scalar tree_4_3_u06_r8_network.node[25].content_store 	misses[25] 	8599
scalar tree_4_3_u06_r8_network.node[25].content_store 	decision_yes[25] 	22
scalar tree_4_3_u06_r8_network.node[25].content_store 	decision_no[25] 	8577
scalar tree_4_3_u06_r8_network.node[25].content_store 	decision_ratio[25] 	0.0025584370275613
scalar tree_4_3_u06_r8_network.node[26].core_layer 	interests[26] 	12386
scalar tree_4_3_u06_r8_network.node[26].core_layer 	data[26] 	8711
scalar tree_4_3_u06_r8_network.node[26].content_store 	p_hit[26] 	0.29670595834006
scalar tree_4_3_u06_r8_network.node[26].content_store 	hits[26] 	3675
scalar tree_4_3_u06_r8_network.node[26].content_store 	misses[26] 	8711
scalar tree_4_3_u06_r8_network.node[26].content_store 	decision_yes[26] 	23
scalar tree_4_3_u06_r8_network.node[26].content_store 	decision_no[26] 	8688
scalar tree_4_3_u06_r8_network.node[26].content_store 	decision_ratio[26] 	0.0026403398002526
scalar tree_4_3_u06_r8_network.node[27].core_layer 	interests[27] 	12245
scalar tree_4_3_u06_r8_network.node[27].core_layer 	data[27] 	8693
scalar tree_4_3_u06_r8_network.node[27].content_store 	p_hit[27] 	0.28999591670069
scalar tree_4_3_u06_r8_network.node[27].content_store 	hits[27] 	3551
scalar tree_4_3_u06_r8_network.node[27].content_store 	misses[27] 	8694
scalar tree_4_3_u06_r8_network.node[27].content_store 	decision_yes[27] 	23
scalar tree_4_3_u06_r8_network.node[27].content_store 	decision_no[27] 	8670
scalar tree_4_3_u06_r8_network.node[27].content_store 	decision_ratio[27] 	0.0026458069711262
scalar tree_4_3_u06_r8_network.node[28].core_layer 	interests[28] 	12777
scalar tree_4_3_u06_r8_network.node[28].core_layer 	data[28] 	8789
scalar tree_4_3_u06_r8_network.node[28].content_store 	p_hit[28] 	0.31212334663849
scalar tree_4_3_u06_r8_network.node[28].content_store 	hits[28] 	3988
scalar tree_4_3_u06_r8_network.node[28].content_store 	misses[28] 	8789
scalar tree_4_3_u06_r8_network.node[28].content_store 	decision_yes[28] 	27
scalar tree_4_3_u06_r8_network.node[28].content_store 	decision_no[28] 	8762
scalar tree_4_3_u06_r8_network.node[28].content_store 	decision_ratio[28] 	0.0030720218454887
scalar tree_4_3_u06_r8_network.node[29].core_layer 	interests[29] 	12759
scalar tree_4_3_u06_r8_network.node[29].core_layer 	data[29] 	8946
scalar tree_4_3_u06_r8_network.node[29].content_store 	p_hit[29] 	0.29884787209029
scalar tree_4_3_u06_r8_network.node[29].content_store 	hits[29] 	3813
scalar tree_4_3_u06_r8_network.node[29].content_store 	misses[29] 	8946
scalar tree_4_3_u06_r8_network.node[29].content_store 	decision_yes[29] 	23
scalar tree_4_3_u06_r8_network.node[29].content_store 	decision_no[29] 	8923
scalar tree_4_3_u06_r8_network.node[29].content_store 	decision_ratio[29] 	0.0025709814442209
scalar tree_4_3_u06_r8_network.node[30].core_layer 	interests[30] 	12719
scalar tree_4_3_u06_r8_network.node[30].core_layer 	data[30] 	8778
scalar tree_4_3_u06_r8_network.node[30].content_store 	p_hit[30] 	0.30993002594544
scalar tree_4_3_u06_r8_network.node[30].content_store 	hits[30] 	3942
scalar tree_4_3_u06_r8_network.node[30].content_store 	misses[30] 	8777
scalar tree_4_3_u06_r8_network.node[30].content_store 	decision_yes[30] 	28
scalar tree_4_3_u06_r8_network.node[30].content_store 	decision_no[30] 	8750
scalar tree_4_3_u06_r8_network.node[30].content_store 	decision_ratio[30] 	0.0031897926634769
scalar tree_4_3_u06_r8_network.node[31].core_layer 	interests[31] 	12465
scalar tree_4_3_u06_r8_network.node[31].core_layer 	data[31] 	8600
scalar tree_4_3_u06_r8_network.node[31].content_store 	p_hit[31] 	0.31006819093462
scalar tree_4_3_u06_r8_network.node[31].content_store 	hits[31] 	3865
scalar tree_4_3_u06_r8_network.node[31].content_store 	misses[31] 	8600
scalar tree_4_3_u06_r8_network.node[31].content_store 	decision_yes[31] 	25
scalar tree_4_3_u06_r8_network.node[31].content_store 	decision_no[31] 	8575
scalar tree_4_3_u06_r8_network.node[31].content_store 	decision_ratio[31] 	0.002906976744186
scalar tree_4_3_u06_r8_network.node[32].core_layer 	interests[32] 	12644
scalar tree_4_3_u06_r8_network.node[32].core_layer 	data[32] 	8925
scalar tree_4_3_u06_r8_network.node[32].content_store 	p_hit[32] 	0.29413160392281
scalar tree_4_3_u06_r8_network.node[32].content_store 	hits[32] 	3719
scalar tree_4_3_u06_r8_network.node[32].content_store 	misses[32] 	8925
scalar tree_4_3_u06_r8_network.node[32].content_store 	decision_yes[32] 	26
scalar tree_4_3_u06_r8_network.node[32].content_store 	decision_no[32] 	8899
scalar tree_4_3_u06_r8_network.node[32].content_store 	decision_ratio[32] 	0.0029131652661064
scalar tree_4_3_u06_r8_network.node[33].core_layer 	interests[33] 	12580
scalar tree_4_3_u06_r8_network.node[33].core_layer 	data[33] 	8687
scalar tree_4_3_u06_r8_network.node[33].content_store 	p_hit[33] 	0.30953895071542
scalar tree_4_3_u06_r8_network.node[33].content_store 	hits[33] 	3894
scalar tree_4_3_u06_r8_network.node[33].content_store 	misses[33] 	8686
scalar tree_4_3_u06_r8_network.node[33].content_store 	decision_yes[33] 	26
scalar tree_4_3_u06_r8_network.node[33].content_store 	decision_no[33] 	8661
scalar tree_4_3_u06_r8_network.node[33].content_store 	decision_ratio[33] 	0.0029929780131231
scalar tree_4_3_u06_r8_network.node[34].core_layer 	interests[34] 	12774
scalar tree_4_3_u06_r8_network.node[34].core_layer 	data[34] 	8570
scalar tree_4_3_u06_r8_network.node[34].content_store 	p_hit[34] 	0.3291059965555
scalar tree_4_3_u06_r8_network.node[34].content_store 	hits[34] 	4204
scalar tree_4_3_u06_r8_network.node[34].content_store 	misses[34] 	8570
scalar tree_4_3_u06_r8_network.node[34].content_store 	decision_yes[34] 	21
scalar tree_4_3_u06_r8_network.node[34].content_store 	decision_no[34] 	8549
scalar tree_4_3_u06_r8_network.node[34].content_store 	decision_ratio[34] 	0.0024504084014002
scalar tree_4_3_u06_r8_network.node[35].core_layer 	interests[35] 	12424
scalar tree_4_3_u06_r8_network.node[35].core_layer 	data[35] 	8781
scalar tree_4_3_u06_r8_network.node[35].content_store 	p_hit[35] 	0.29322279459111
scalar tree_4_3_u06_r8_network.node[35].content_store 	hits[35] 	3643
scalar tree_4_3_u06_r8_network.node[35].content_store 	misses[35] 	8781
scalar tree_4_3_u06_r8_network.node[35].content_store 	decision_yes[35] 	18
scalar tree_4_3_u06_r8_network.node[35].content_store 	decision_no[35] 	8763
scalar tree_4_3_u06_r8_network.node[35].content_store 	decision_ratio[35] 	0.002049880423642
scalar tree_4_3_u06_r8_network.node[36].core_layer 	interests[36] 	12465
scalar tree_4_3_u06_r8_network.node[36].core_layer 	data[36] 	8810
scalar tree_4_3_u06_r8_network.node[36].content_store 	p_hit[36] 	0.29322101885279
scalar tree_4_3_u06_r8_network.node[36].content_store 	hits[36] 	3655
scalar tree_4_3_u06_r8_network.node[36].content_store 	misses[36] 	8810
scalar tree_4_3_u06_r8_network.node[36].content_store 	decision_yes[36] 	31
scalar tree_4_3_u06_r8_network.node[36].content_store 	decision_no[36] 	8779
scalar tree_4_3_u06_r8_network.node[36].content_store 	decision_ratio[36] 	0.0035187287173666
scalar tree_4_3_u06_r8_network.node[37].core_layer 	interests[37] 	12764
scalar tree_4_3_u06_r8_network.node[37].core_layer 	data[37] 	8893
scalar tree_4_3_u06_r8_network.node[37].content_store 	p_hit[37] 	0.30327483547477
scalar tree_4_3_u06_r8_network.node[37].content_store 	hits[37] 	3871
scalar tree_4_3_u06_r8_network.node[37].content_store 	misses[37] 	8893
scalar tree_4_3_u06_r8_network.node[37].content_store 	decision_yes[37] 	29
scalar tree_4_3_u06_r8_network.node[37].content_store 	decision_no[37] 	8864
scalar tree_4_3_u06_r8_network.node[37].content_store 	decision_ratio[37] 	0.0032609917912965
scalar tree_4_3_u06_r8_network.node[38].core_layer 	interests[38] 	12686
scalar tree_4_3_u06_r8_network.node[38].core_layer 	data[38] 	8847
scalar tree_4_3_u06_r8_network.node[38].content_store 	p_hit[38] 	0.30261705817437
scalar tree_4_3_u06_r8_network.node[38].content_store 	hits[38] 	3839
scalar tree_4_3_u06_r8_network.node[38].content_store 	misses[38] 	8847
scalar tree_4_3_u06_r8_network.node[38].content_store 	decision_yes[38] 	14
scalar tree_4_3_u06_r8_network.node[38].content_store 	decision_no[38] 	8833
scalar tree_4_3_u06_r8_network.node[38].content_store 	decision_ratio[38] 	0.0015824573301684
scalar tree_4_3_u06_r8_network.node[39].core_layer 	interests[39] 	12282
scalar tree_4_3_u06_r8_network.node[39].core_layer 	data[39] 	8828
scalar tree_4_3_u06_r8_network.node[39].content_store 	p_hit[39] 	0.2812245562612
scalar tree_4_3_u06_r8_network.node[39].content_store 	hits[39] 	3454
scalar tree_4_3_u06_r8_network.node[39].content_store 	misses[39] 	8828
scalar tree_4_3_u06_r8_network.node[39].content_store 	decision_yes[39] 	28
scalar tree_4_3_u06_r8_network.node[39].content_store 	decision_no[39] 	8800
scalar tree_4_3_u06_r8_network.node[39].content_store 	decision_ratio[39] 	0.0031717263253285
scalar tree_4_3_u06_r8_network.client[13] 	hdistance[13] 	2.6536687631027
scalar tree_4_3_u06_r8_network.client[13] 	downloads[13] 	11925
scalar tree_4_3_u06_r8_network.client[13] 	avg_time[13] 	0.00415043725
scalar tree_4_3_u06_r8_network.client[14] 	hdistance[14] 	2.5901381649706
scalar tree_4_3_u06_r8_network.client[14] 	downloads[14] 	12087
scalar tree_4_3_u06_r8_network.client[14] 	avg_time[14] 	0.004031601172
scalar tree_4_3_u06_r8_network.client[15] 	hdistance[15] 	2.5706762517763
scalar tree_4_3_u06_r8_network.client[15] 	downloads[15] 	11963
scalar tree_4_3_u06_r8_network.client[15] 	avg_time[15] 	0.004036609891
scalar tree_4_3_u06_r8_network.client[16] 	hdistance[16] 	2.6178807393159
scalar tree_4_3_u06_r8_network.client[16] 	downloads[16] 	11957
scalar tree_4_3_u06_r8_network.client[16] 	avg_time[16] 	0.004069245149
scalar tree_4_3_u06_r8_network.client[17] 	hdistance[17] 	2.6677595628415
scalar tree_4_3_u06_r8_network.client[17] 	downloads[17] 	11895
scalar tree_4_3_u06_r8_network.client[17] 	avg_time[17] 	0.004171665843
scalar tree_4_3_u06_r8_network.client[18] 	hdistance[18] 	2.5785453337762
scalar tree_4_3_u06_r8_network.client[18] 	downloads[18] 	12044
scalar tree_4_3_u06_r8_network.client[18] 	avg_time[18] 	0.004046161027
scalar tree_4_3_u06_r8_network.client[19] 	hdistance[19] 	2.5580197690838
scalar tree_4_3_u06_r8_network.client[19] 	downloads[19] 	12039
scalar tree_4_3_u06_r8_network.client[19] 	avg_time[19] 	0.004011625817
scalar tree_4_3_u06_r8_network.client[20] 	hdistance[20] 	2.5959861819378
scalar tree_4_3_u06_r8_network.client[20] 	downloads[20] 	12158
scalar tree_4_3_u06_r8_network.client[20] 	avg_time[20] 	0.004089649837
scalar tree_4_3_u06_r8_network.client[21] 	hdistance[21] 	2.6033277870216
scalar tree_4_3_u06_r8_network.client[21] 	downloads[21] 	12020
scalar tree_4_3_u06_r8_network.client[21] 	avg_time[21] 	0.004101827279
scalar tree_4_3_u06_r8_network.client[22] 	hdistance[22] 	2.6283282777216
scalar tree_4_3_u06_r8_network.client[22] 	downloads[22] 	11868
scalar tree_4_3_u06_r8_network.client[22] 	avg_time[22] 	0.004137509666
scalar tree_4_3_u06_r8_network.client[23] 	hdistance[23] 	2.5851299286827
scalar tree_4_3_u06_r8_network.client[23] 	downloads[23] 	12199
scalar tree_4_3_u06_r8_network.client[23] 	avg_time[23] 	0.004046456745
scalar tree_4_3_u06_r8_network.client[24] 	hdistance[24] 	2.5601996784838
scalar tree_4_3_u06_r8_network.client[24] 	downloads[24] 	11819
scalar tree_4_3_u06_r8_network.client[24] 	avg_time[24] 	0.004028595047
scalar tree_4_3_u06_r8_network.client[25] 	hdistance[25] 	2.6392917369309
scalar tree_4_3_u06_r8_network.client[25] 	downloads[25] 	11860
scalar tree_4_3_u06_r8_network.client[25] 	avg_time[25] 	0.004102189248
scalar tree_4_3_u06_r8_network.client[26] 	hdistance[26] 	2.6344576116682
scalar tree_4_3_u06_r8_network.client[26] 	downloads[26] 	12067
scalar tree_4_3_u06_r8_network.client[26] 	avg_time[26] 	0.004094966756
scalar tree_4_3_u06_r8_network.client[27] 	hdistance[27] 	2.6590660496424
scalar tree_4_3_u06_r8_network.client[27] 	downloads[27] 	11885
scalar tree_4_3_u06_r8_network.client[27] 	avg_time[27] 	0.004136134999
scalar tree_4_3_u06_r8_network.client[28] 	hdistance[28] 	2.5586606243706
scalar tree_4_3_u06_r8_network.client[28] 	downloads[28] 	11916
scalar tree_4_3_u06_r8_network.client[28] 	avg_time[28] 	0.004027019516
scalar tree_4_3_u06_r8_network.client[29] 	hdistance[29] 	2.5921901805408
scalar tree_4_3_u06_r8_network.client[29] 	downloads[29] 	12241
scalar tree_4_3_u06_r8_network.client[29] 	avg_time[29] 	0.004091819459
scalar tree_4_3_u06_r8_network.client[30] 	hdistance[30] 	2.5811867336022
scalar tree_4_3_u06_r8_network.client[30] 	downloads[30] 	12151
scalar tree_4_3_u06_r8_network.client[30] 	avg_time[30] 	0.004066658148
scalar tree_4_3_u06_r8_network.client[31] 	hdistance[31] 	2.6002185057568
scalar tree_4_3_u06_r8_network.client[31] 	downloads[31] 	11899
scalar tree_4_3_u06_r8_network.client[31] 	avg_time[31] 	0.004077818674
scalar tree_4_3_u06_r8_network.client[32] 	hdistance[32] 	2.6355841371919
scalar tree_4_3_u06_r8_network.client[32] 	downloads[32] 	12129
scalar tree_4_3_u06_r8_network.client[32] 	avg_time[32] 	0.004140955618
scalar tree_4_3_u06_r8_network.client[33] 	hdistance[33] 	2.5787130376344
scalar tree_4_3_u06_r8_network.client[33] 	downloads[33] 	11904
scalar tree_4_3_u06_r8_network.client[33] 	avg_time[33] 	0.004020998415
scalar tree_4_3_u06_r8_network.client[34] 	hdistance[34] 	2.5562663075499
scalar tree_4_3_u06_r8_network.client[34] 	downloads[34] 	11881
scalar tree_4_3_u06_r8_network.client[34] 	avg_time[34] 	0.003990065212
scalar tree_4_3_u06_r8_network.client[35] 	hdistance[35] 	2.6273990734613
scalar tree_4_3_u06_r8_network.client[35] 	downloads[35] 	12088
scalar tree_4_3_u06_r8_network.client[35] 	avg_time[35] 	0.004121274286
scalar tree_4_3_u06_r8_network.client[36] 	hdistance[36] 	2.6447248277579
scalar tree_4_3_u06_r8_network.client[36] 	downloads[36] 	12047
scalar tree_4_3_u06_r8_network.client[36] 	avg_time[36] 	0.004146046367
scalar tree_4_3_u06_r8_network.client[37] 	hdistance[37] 	2.6002150715527
scalar tree_4_3_u06_r8_network.client[37] 	downloads[37] 	12089
scalar tree_4_3_u06_r8_network.client[37] 	avg_time[37] 	0.004057073679
scalar tree_4_3_u06_r8_network.client[38] 	hdistance[38] 	2.6026131824234
scalar tree_4_3_u06_r8_network.client[38] 	downloads[38] 	12016
scalar tree_4_3_u06_r8_network.client[38] 	avg_time[38] 	0.004066408454
scalar tree_4_3_u06_r8_network.client[39] 	hdistance[39] 	2.6463203105641
scalar tree_4_3_u06_r8_network.client[39] 	downloads[39] 	12107
scalar tree_4_3_u06_r8_network.client[39] 	avg_time[39] 	0.004156104996
