version 2
run General-128-20160820-04:52:14-14346
attr a 0.9
attr cd fix0.1
attr configname General
attr cr lru
attr datetime 20160820-04:52:14
attr experiment General
attr fsize 1
attr inifile hw5115/scenario_A/SPR-FIX0.1.ini
attr iterationvars "$name=tree_4_3, $un=06, $rep=9, $cd=fix0.1, $cr=lru, $fsize=1, $a=0.9, $sl=spr, $ttl=1000, $variance=0.05"
attr iterationvars2 "$name=tree_4_3, $un=06, $rep=9, $cd=fix0.1, $cr=lru, $fsize=1, $a=0.9, $sl=spr, $ttl=1000, $variance=0.05, $repetition=0"
attr measurement "$name=tree_4_3, $un=06, $rep=9, $cd=fix0.1, $cr=lru, $fsize=1, $a=0.9, $sl=spr, $ttl=1000, $variance=0.05"
attr name tree_4_3
attr network networks.${name}_u${un}_r${rep}_network
attr processid 14346
attr rep 9
attr repetition 0
attr replication #0
attr resultdir results
attr runnumber 128
attr seedset 9
attr sl spr
attr ttl 1000
attr un 06
attr variance 0.05

scalar . 	a 	0.9
scalar . 	fsize 	1
scalar . 	rep 	9
scalar . 	ttl 	1000
scalar . 	un 	06
scalar . 	variance 	0.05
scalar tree_4_3_u06_r9_network.content_distribution 	repo-0 	0
scalar tree_4_3_u06_r9_network.content_distribution 	client-0 	13
scalar tree_4_3_u06_r9_network.content_distribution 	client-1 	14
scalar tree_4_3_u06_r9_network.content_distribution 	client-2 	15
scalar tree_4_3_u06_r9_network.content_distribution 	client-3 	16
scalar tree_4_3_u06_r9_network.content_distribution 	client-4 	17
scalar tree_4_3_u06_r9_network.content_distribution 	client-5 	18
scalar tree_4_3_u06_r9_network.content_distribution 	client-6 	19
scalar tree_4_3_u06_r9_network.content_distribution 	client-7 	20
scalar tree_4_3_u06_r9_network.content_distribution 	client-8 	21
scalar tree_4_3_u06_r9_network.content_distribution 	client-9 	22
scalar tree_4_3_u06_r9_network.content_distribution 	client-10 	23
scalar tree_4_3_u06_r9_network.content_distribution 	client-11 	24
scalar tree_4_3_u06_r9_network.content_distribution 	client-12 	25
scalar tree_4_3_u06_r9_network.content_distribution 	client-13 	26
scalar tree_4_3_u06_r9_network.content_distribution 	client-14 	27
scalar tree_4_3_u06_r9_network.content_distribution 	client-15 	28
scalar tree_4_3_u06_r9_network.content_distribution 	client-16 	29
scalar tree_4_3_u06_r9_network.content_distribution 	client-17 	30
scalar tree_4_3_u06_r9_network.content_distribution 	client-18 	31
scalar tree_4_3_u06_r9_network.content_distribution 	client-19 	32
scalar tree_4_3_u06_r9_network.content_distribution 	client-20 	33
scalar tree_4_3_u06_r9_network.content_distribution 	client-21 	34
scalar tree_4_3_u06_r9_network.content_distribution 	client-22 	35
scalar tree_4_3_u06_r9_network.content_distribution 	client-23 	36
scalar tree_4_3_u06_r9_network.content_distribution 	client-24 	37
scalar tree_4_3_u06_r9_network.content_distribution 	client-25 	38
scalar tree_4_3_u06_r9_network.content_distribution 	client-26 	39
scalar tree_4_3_u06_r9_network.content_distribution 	repo-0_card 	100000
scalar tree_4_3_u06_r9_network.content_distribution 	repo-0_price 	0
scalar tree_4_3_u06_r9_network.statistics 	stabilization_time 	769.2
scalar tree_4_3_u06_r9_network.statistics 	p_hit 	0.15002036287159
scalar tree_4_3_u06_r9_network.statistics 	interests 	26789.075
scalar tree_4_3_u06_r9_network.statistics 	data 	18684.9
scalar tree_4_3_u06_r9_network.statistics 	hdistance 	3.0398872565431
scalar tree_4_3_u06_r9_network.statistics 	avg_time 	0.004611431851
scalar tree_4_3_u06_r9_network.statistics 	downloads 	324153
scalar tree_4_3_u06_r9_network.statistics 	total_cost 	0
scalar tree_4_3_u06_r9_network.statistics 	total_replicas 	100000
scalar tree_4_3_u06_r9_network.statistics 	inner_hit 	0.26595157225138
scalar tree_4_3_u06_r9_network.node[0].core_layer 	interests[0] 	242355
scalar tree_4_3_u06_r9_network.node[0].core_layer 	repo_load[0] 	237944
scalar tree_4_3_u06_r9_network.node[0].core_layer 	data[0] 	0
scalar tree_4_3_u06_r9_network.node[0].core_layer 	repo_int[0] 	237944
scalar tree_4_3_u06_r9_network.node[0].content_store 	p_hit[0] 	0.018200573538817
scalar tree_4_3_u06_r9_network.node[0].content_store 	hits[0] 	4411
scalar tree_4_3_u06_r9_network.node[0].content_store 	misses[0] 	237944
scalar tree_4_3_u06_r9_network.node[0].content_store 	decision_yes[0] 	23760
scalar tree_4_3_u06_r9_network.node[0].content_store 	decision_no[0] 	214184
scalar tree_4_3_u06_r9_network.node[0].content_store 	decision_ratio[0] 	0.099855428167972
scalar tree_4_3_u06_r9_network.node[1].core_layer 	interests[1] 	110054
scalar tree_4_3_u06_r9_network.node[1].core_layer 	data[1] 	107547
scalar tree_4_3_u06_r9_network.node[1].content_store 	p_hit[1] 	0.022716121176877
scalar tree_4_3_u06_r9_network.node[1].content_store 	hits[1] 	2500
scalar tree_4_3_u06_r9_network.node[1].content_store 	misses[1] 	107554
scalar tree_4_3_u06_r9_network.node[1].content_store 	decision_yes[1] 	10884
scalar tree_4_3_u06_r9_network.node[1].content_store 	decision_no[1] 	96663
scalar tree_4_3_u06_r9_network.node[1].content_store 	decision_ratio[1] 	0.10120226505621
scalar tree_4_3_u06_r9_network.node[2].core_layer 	interests[2] 	101278
scalar tree_4_3_u06_r9_network.node[2].core_layer 	data[2] 	98770
scalar tree_4_3_u06_r9_network.node[2].content_store 	p_hit[2] 	0.024704279310413
scalar tree_4_3_u06_r9_network.node[2].content_store 	hits[2] 	2502
scalar tree_4_3_u06_r9_network.node[2].content_store 	misses[2] 	98776
scalar tree_4_3_u06_r9_network.node[2].content_store 	decision_yes[2] 	9873
scalar tree_4_3_u06_r9_network.node[2].content_store 	decision_no[2] 	88897
scalar tree_4_3_u06_r9_network.node[2].content_store 	decision_ratio[2] 	0.099959501873038
scalar tree_4_3_u06_r9_network.node[3].core_layer 	interests[3] 	36851
scalar tree_4_3_u06_r9_network.node[3].core_layer 	data[3] 	36038
scalar tree_4_3_u06_r9_network.node[3].content_store 	p_hit[3] 	0.022061816504301
scalar tree_4_3_u06_r9_network.node[3].content_store 	hits[3] 	813
scalar tree_4_3_u06_r9_network.node[3].content_store 	misses[3] 	36038
scalar tree_4_3_u06_r9_network.node[3].content_store 	decision_yes[3] 	3599
scalar tree_4_3_u06_r9_network.node[3].content_store 	decision_no[3] 	32439
scalar tree_4_3_u06_r9_network.node[3].content_store 	decision_ratio[3] 	0.099866807259004
scalar tree_4_3_u06_r9_network.node[4].core_layer 	interests[4] 	37896
scalar tree_4_3_u06_r9_network.node[4].core_layer 	data[4] 	36660
scalar tree_4_3_u06_r9_network.node[4].content_store 	p_hit[4] 	0.032562803462107
scalar tree_4_3_u06_r9_network.node[4].content_store 	hits[4] 	1234
scalar tree_4_3_u06_r9_network.node[4].content_store 	misses[4] 	36662
scalar tree_4_3_u06_r9_network.node[4].content_store 	decision_yes[4] 	3687
scalar tree_4_3_u06_r9_network.node[4].content_store 	decision_no[4] 	32973
scalar tree_4_3_u06_r9_network.node[4].content_store 	decision_ratio[4] 	0.1005728314239
scalar tree_4_3_u06_r9_network.node[5].core_layer 	interests[5] 	28253
scalar tree_4_3_u06_r9_network.node[5].core_layer 	data[5] 	27227
scalar tree_4_3_u06_r9_network.node[5].content_store 	p_hit[5] 	0.036208544225392
scalar tree_4_3_u06_r9_network.node[5].content_store 	hits[5] 	1023
scalar tree_4_3_u06_r9_network.node[5].content_store 	misses[5] 	27230
scalar tree_4_3_u06_r9_network.node[5].content_store 	decision_yes[5] 	2722
scalar tree_4_3_u06_r9_network.node[5].content_store 	decision_no[5] 	24505
scalar tree_4_3_u06_r9_network.node[5].content_store 	decision_ratio[5] 	0.099974290226613
scalar tree_4_3_u06_r9_network.node[6].core_layer 	interests[6] 	19128
scalar tree_4_3_u06_r9_network.node[6].core_layer 	data[6] 	18466
scalar tree_4_3_u06_r9_network.node[6].content_store 	p_hit[6] 	0.034556670849017
scalar tree_4_3_u06_r9_network.node[6].content_store 	hits[6] 	661
scalar tree_4_3_u06_r9_network.node[6].content_store 	misses[6] 	18467
scalar tree_4_3_u06_r9_network.node[6].content_store 	decision_yes[6] 	1852
scalar tree_4_3_u06_r9_network.node[6].content_store 	decision_no[6] 	16614
scalar tree_4_3_u06_r9_network.node[6].content_store 	decision_ratio[6] 	0.10029242932958
scalar tree_4_3_u06_r9_network.node[7].core_layer 	interests[7] 	28716
scalar tree_4_3_u06_r9_network.node[7].core_layer 	data[7] 	27701
scalar tree_4_3_u06_r9_network.node[7].content_store 	p_hit[7] 	0.035346148488647
scalar tree_4_3_u06_r9_network.node[7].content_store 	hits[7] 	1015
scalar tree_4_3_u06_r9_network.node[7].content_store 	misses[7] 	27701
scalar tree_4_3_u06_r9_network.node[7].content_store 	decision_yes[7] 	2718
scalar tree_4_3_u06_r9_network.node[7].content_store 	decision_no[7] 	24983
scalar tree_4_3_u06_r9_network.node[7].content_store 	decision_ratio[7] 	0.098119201472871
scalar tree_4_3_u06_r9_network.node[8].core_layer 	interests[8] 	28591
scalar tree_4_3_u06_r9_network.node[8].core_layer 	data[8] 	27644
scalar tree_4_3_u06_r9_network.node[8].content_store 	p_hit[8] 	0.033052359133993
scalar tree_4_3_u06_r9_network.node[8].content_store 	hits[8] 	945
scalar tree_4_3_u06_r9_network.node[8].content_store 	misses[8] 	27646
scalar tree_4_3_u06_r9_network.node[8].content_store 	decision_yes[8] 	2794
scalar tree_4_3_u06_r9_network.node[8].content_store 	decision_no[8] 	24850
scalar tree_4_3_u06_r9_network.node[8].content_store 	decision_ratio[8] 	0.10107075676458
scalar tree_4_3_u06_r9_network.node[9].core_layer 	interests[9] 	28540
scalar tree_4_3_u06_r9_network.node[9].core_layer 	data[9] 	27644
scalar tree_4_3_u06_r9_network.node[9].content_store 	p_hit[9] 	0.031359495444989
scalar tree_4_3_u06_r9_network.node[9].content_store 	hits[9] 	895
scalar tree_4_3_u06_r9_network.node[9].content_store 	misses[9] 	27645
scalar tree_4_3_u06_r9_network.node[9].content_store 	decision_yes[9] 	2759
scalar tree_4_3_u06_r9_network.node[9].content_store 	decision_no[9] 	24885
scalar tree_4_3_u06_r9_network.node[9].content_store 	decision_ratio[9] 	0.099804659238895
scalar tree_4_3_u06_r9_network.node[10].core_layer 	interests[10] 	28710
scalar tree_4_3_u06_r9_network.node[10].core_layer 	data[10] 	27666
scalar tree_4_3_u06_r9_network.node[10].content_store 	p_hit[10] 	0.036363636363636
scalar tree_4_3_u06_r9_network.node[10].content_store 	hits[10] 	1044
scalar tree_4_3_u06_r9_network.node[10].content_store 	misses[10] 	27666
scalar tree_4_3_u06_r9_network.node[10].content_store 	decision_yes[10] 	2653
scalar tree_4_3_u06_r9_network.node[10].content_store 	decision_no[10] 	25013
scalar tree_4_3_u06_r9_network.node[10].content_store 	decision_ratio[10] 	0.095893876960891
scalar tree_4_3_u06_r9_network.node[11].core_layer 	interests[11] 	47488
scalar tree_4_3_u06_r9_network.node[11].core_layer 	data[11] 	45989
scalar tree_4_3_u06_r9_network.node[11].content_store 	p_hit[11] 	0.031460579514825
scalar tree_4_3_u06_r9_network.node[11].content_store 	hits[11] 	1494
scalar tree_4_3_u06_r9_network.node[11].content_store 	misses[11] 	45994
scalar tree_4_3_u06_r9_network.node[11].content_store 	decision_yes[11] 	4656
scalar tree_4_3_u06_r9_network.node[11].content_store 	decision_no[11] 	41333
scalar tree_4_3_u06_r9_network.node[11].content_store 	decision_ratio[11] 	0.10124160125247
scalar tree_4_3_u06_r9_network.node[12].core_layer 	interests[12] 	9541
scalar tree_4_3_u06_r9_network.node[12].core_layer 	data[12] 	9185
scalar tree_4_3_u06_r9_network.node[12].content_store 	p_hit[12] 	0.037312650665549
scalar tree_4_3_u06_r9_network.node[12].content_store 	hits[12] 	356
scalar tree_4_3_u06_r9_network.node[12].content_store 	misses[12] 	9185
scalar tree_4_3_u06_r9_network.node[12].content_store 	decision_yes[12] 	936
scalar tree_4_3_u06_r9_network.node[12].content_store 	decision_no[12] 	8249
scalar tree_4_3_u06_r9_network.node[12].content_store 	decision_ratio[12] 	0.10190528034839
scalar tree_4_3_u06_r9_network.node[13].core_layer 	interests[13] 	12064
scalar tree_4_3_u06_r9_network.node[13].core_layer 	data[13] 	9548
scalar tree_4_3_u06_r9_network.node[13].content_store 	p_hit[13] 	0.20847148541114
scalar tree_4_3_u06_r9_network.node[13].content_store 	hits[13] 	2515
scalar tree_4_3_u06_r9_network.node[13].content_store 	misses[13] 	9549
scalar tree_4_3_u06_r9_network.node[13].content_store 	decision_yes[13] 	910
scalar tree_4_3_u06_r9_network.node[13].content_store 	decision_no[13] 	8638
scalar tree_4_3_u06_r9_network.node[13].content_store 	decision_ratio[13] 	0.095307917888563
scalar tree_4_3_u06_r9_network.node[14].core_layer 	interests[14] 	11841
scalar tree_4_3_u06_r9_network.node[14].core_layer 	data[14] 	9335
scalar tree_4_3_u06_r9_network.node[14].content_store 	p_hit[14] 	0.21163753061397
scalar tree_4_3_u06_r9_network.node[14].content_store 	hits[14] 	2506
scalar tree_4_3_u06_r9_network.node[14].content_store 	misses[14] 	9335
scalar tree_4_3_u06_r9_network.node[14].content_store 	decision_yes[14] 	929
scalar tree_4_3_u06_r9_network.node[14].content_store 	decision_no[14] 	8406
scalar tree_4_3_u06_r9_network.node[14].content_store 	decision_ratio[14] 	0.099517943224424
scalar tree_4_3_u06_r9_network.node[15].core_layer 	interests[15] 	12099
scalar tree_4_3_u06_r9_network.node[15].core_layer 	data[15] 	9486
scalar tree_4_3_u06_r9_network.node[15].content_store 	p_hit[15] 	0.21596826183982
scalar tree_4_3_u06_r9_network.node[15].content_store 	hits[15] 	2613
scalar tree_4_3_u06_r9_network.node[15].content_store 	misses[15] 	9486
scalar tree_4_3_u06_r9_network.node[15].content_store 	decision_yes[15] 	984
scalar tree_4_3_u06_r9_network.node[15].content_store 	decision_no[15] 	8502
scalar tree_4_3_u06_r9_network.node[15].content_store 	decision_ratio[15] 	0.10373181530677
scalar tree_4_3_u06_r9_network.node[16].core_layer 	interests[16] 	12068
scalar tree_4_3_u06_r9_network.node[16].core_layer 	data[16] 	9525
scalar tree_4_3_u06_r9_network.node[16].content_store 	p_hit[16] 	0.21063970831952
scalar tree_4_3_u06_r9_network.node[16].content_store 	hits[16] 	2542
scalar tree_4_3_u06_r9_network.node[16].content_store 	misses[16] 	9526
scalar tree_4_3_u06_r9_network.node[16].content_store 	decision_yes[16] 	906
scalar tree_4_3_u06_r9_network.node[16].content_store 	decision_no[16] 	8619
scalar tree_4_3_u06_r9_network.node[16].content_store 	decision_ratio[16] 	0.09511811023622
scalar tree_4_3_u06_r9_network.node[17].core_layer 	interests[17] 	11902
scalar tree_4_3_u06_r9_network.node[17].core_layer 	data[17] 	9409
scalar tree_4_3_u06_r9_network.node[17].content_store 	p_hit[17] 	0.20946059485801
scalar tree_4_3_u06_r9_network.node[17].content_store 	hits[17] 	2493
scalar tree_4_3_u06_r9_network.node[17].content_store 	misses[17] 	9409
scalar tree_4_3_u06_r9_network.node[17].content_store 	decision_yes[17] 	955
scalar tree_4_3_u06_r9_network.node[17].content_store 	decision_no[17] 	8454
scalar tree_4_3_u06_r9_network.node[17].content_store 	decision_ratio[17] 	0.10149856520353
scalar tree_4_3_u06_r9_network.node[18].core_layer 	interests[18] 	11963
scalar tree_4_3_u06_r9_network.node[18].core_layer 	data[18] 	9484
scalar tree_4_3_u06_r9_network.node[18].content_store 	p_hit[18] 	0.20713867758923
scalar tree_4_3_u06_r9_network.node[18].content_store 	hits[18] 	2478
scalar tree_4_3_u06_r9_network.node[18].content_store 	misses[18] 	9485
scalar tree_4_3_u06_r9_network.node[18].content_store 	decision_yes[18] 	938
scalar tree_4_3_u06_r9_network.node[18].content_store 	decision_no[18] 	8546
scalar tree_4_3_u06_r9_network.node[18].content_store 	decision_ratio[18] 	0.098903416280051
scalar tree_4_3_u06_r9_network.node[19].core_layer 	interests[19] 	11993
scalar tree_4_3_u06_r9_network.node[19].core_layer 	data[19] 	9545
scalar tree_4_3_u06_r9_network.node[19].content_store 	p_hit[19] 	0.20411906945718
scalar tree_4_3_u06_r9_network.node[19].content_store 	hits[19] 	2448
scalar tree_4_3_u06_r9_network.node[19].content_store 	misses[19] 	9545
scalar tree_4_3_u06_r9_network.node[19].content_store 	decision_yes[19] 	907
scalar tree_4_3_u06_r9_network.node[19].content_store 	decision_no[19] 	8638
scalar tree_4_3_u06_r9_network.node[19].content_store 	decision_ratio[19] 	0.095023572551074
scalar tree_4_3_u06_r9_network.node[20].core_layer 	interests[20] 	11753
scalar tree_4_3_u06_r9_network.node[20].core_layer 	data[20] 	9359
scalar tree_4_3_u06_r9_network.node[20].content_store 	p_hit[20] 	0.20377775887008
scalar tree_4_3_u06_r9_network.node[20].content_store 	hits[20] 	2395
scalar tree_4_3_u06_r9_network.node[20].content_store 	misses[20] 	9358
scalar tree_4_3_u06_r9_network.node[20].content_store 	decision_yes[20] 	951
scalar tree_4_3_u06_r9_network.node[20].content_store 	decision_no[20] 	8408
scalar tree_4_3_u06_r9_network.node[20].content_store 	decision_ratio[20] 	0.1016134202372
scalar tree_4_3_u06_r9_network.node[21].core_layer 	interests[21] 	12008
scalar tree_4_3_u06_r9_network.node[21].core_layer 	data[21] 	9583
scalar tree_4_3_u06_r9_network.node[21].content_store 	p_hit[21] 	0.20194870086609
scalar tree_4_3_u06_r9_network.node[21].content_store 	hits[21] 	2425
scalar tree_4_3_u06_r9_network.node[21].content_store 	misses[21] 	9583
scalar tree_4_3_u06_r9_network.node[21].content_store 	decision_yes[21] 	1009
scalar tree_4_3_u06_r9_network.node[21].content_store 	decision_no[21] 	8574
scalar tree_4_3_u06_r9_network.node[21].content_store 	decision_ratio[21] 	0.10529061880413
scalar tree_4_3_u06_r9_network.node[22].core_layer 	interests[22] 	12064
scalar tree_4_3_u06_r9_network.node[22].core_layer 	data[22] 	9619
scalar tree_4_3_u06_r9_network.node[22].content_store 	p_hit[22] 	0.20266909814324
scalar tree_4_3_u06_r9_network.node[22].content_store 	hits[22] 	2445
scalar tree_4_3_u06_r9_network.node[22].content_store 	misses[22] 	9619
scalar tree_4_3_u06_r9_network.node[22].content_store 	decision_yes[22] 	968
scalar tree_4_3_u06_r9_network.node[22].content_store 	decision_no[22] 	8651
scalar tree_4_3_u06_r9_network.node[22].content_store 	decision_ratio[22] 	0.10063416155526
scalar tree_4_3_u06_r9_network.node[23].core_layer 	interests[23] 	11899
scalar tree_4_3_u06_r9_network.node[23].core_layer 	data[23] 	9514
scalar tree_4_3_u06_r9_network.node[23].content_store 	p_hit[23] 	0.20035297083789
scalar tree_4_3_u06_r9_network.node[23].content_store 	hits[23] 	2384
scalar tree_4_3_u06_r9_network.node[23].content_store 	misses[23] 	9515
scalar tree_4_3_u06_r9_network.node[23].content_store 	decision_yes[23] 	1005
scalar tree_4_3_u06_r9_network.node[23].content_store 	decision_no[23] 	8509
scalar tree_4_3_u06_r9_network.node[23].content_store 	decision_ratio[23] 	0.1056338028169
scalar tree_4_3_u06_r9_network.node[24].core_layer 	interests[24] 	12056
scalar tree_4_3_u06_r9_network.node[24].core_layer 	data[24] 	9583
scalar tree_4_3_u06_r9_network.node[24].content_store 	p_hit[24] 	0.20504313205043
scalar tree_4_3_u06_r9_network.node[24].content_store 	hits[24] 	2472
scalar tree_4_3_u06_r9_network.node[24].content_store 	misses[24] 	9584
scalar tree_4_3_u06_r9_network.node[24].content_store 	decision_yes[24] 	951
scalar tree_4_3_u06_r9_network.node[24].content_store 	decision_no[24] 	8632
scalar tree_4_3_u06_r9_network.node[24].content_store 	decision_ratio[24] 	0.09923823437337
scalar tree_4_3_u06_r9_network.node[25].core_layer 	interests[25] 	11997
scalar tree_4_3_u06_r9_network.node[25].core_layer 	data[25] 	9519
scalar tree_4_3_u06_r9_network.node[25].content_store 	p_hit[25] 	0.20655163790948
scalar tree_4_3_u06_r9_network.node[25].content_store 	hits[25] 	2478
scalar tree_4_3_u06_r9_network.node[25].content_store 	misses[25] 	9519
scalar tree_4_3_u06_r9_network.node[25].content_store 	decision_yes[25] 	938
scalar tree_4_3_u06_r9_network.node[25].content_store 	decision_no[25] 	8581
scalar tree_4_3_u06_r9_network.node[25].content_store 	decision_ratio[25] 	0.098539762580103
scalar tree_4_3_u06_r9_network.node[26].core_layer 	interests[26] 	11851
scalar tree_4_3_u06_r9_network.node[26].core_layer 	data[26] 	9405
scalar tree_4_3_u06_r9_network.node[26].content_store 	p_hit[26] 	0.2063117036537
scalar tree_4_3_u06_r9_network.node[26].content_store 	hits[26] 	2445
scalar tree_4_3_u06_r9_network.node[26].content_store 	misses[26] 	9406
scalar tree_4_3_u06_r9_network.node[26].content_store 	decision_yes[26] 	954
scalar tree_4_3_u06_r9_network.node[26].content_store 	decision_no[26] 	8451
scalar tree_4_3_u06_r9_network.node[26].content_store 	decision_ratio[26] 	0.10143540669856
scalar tree_4_3_u06_r9_network.node[27].core_layer 	interests[27] 	12148
scalar tree_4_3_u06_r9_network.node[27].core_layer 	data[27] 	9666
scalar tree_4_3_u06_r9_network.node[27].content_store 	p_hit[27] 	0.20423114916036
scalar tree_4_3_u06_r9_network.node[27].content_store 	hits[27] 	2481
scalar tree_4_3_u06_r9_network.node[27].content_store 	misses[27] 	9667
scalar tree_4_3_u06_r9_network.node[27].content_store 	decision_yes[27] 	973
scalar tree_4_3_u06_r9_network.node[27].content_store 	decision_no[27] 	8693
scalar tree_4_3_u06_r9_network.node[27].content_store 	decision_ratio[27] 	0.1006621146286
scalar tree_4_3_u06_r9_network.node[28].core_layer 	interests[28] 	12070
scalar tree_4_3_u06_r9_network.node[28].core_layer 	data[28] 	9548
scalar tree_4_3_u06_r9_network.node[28].content_store 	p_hit[28] 	0.2089478044739
scalar tree_4_3_u06_r9_network.node[28].content_store 	hits[28] 	2522
scalar tree_4_3_u06_r9_network.node[28].content_store 	misses[28] 	9548
scalar tree_4_3_u06_r9_network.node[28].content_store 	decision_yes[28] 	939
scalar tree_4_3_u06_r9_network.node[28].content_store 	decision_no[28] 	8609
scalar tree_4_3_u06_r9_network.node[28].content_store 	decision_ratio[28] 	0.098345203183913
scalar tree_4_3_u06_r9_network.node[29].core_layer 	interests[29] 	12098
scalar tree_4_3_u06_r9_network.node[29].core_layer 	data[29] 	9574
scalar tree_4_3_u06_r9_network.node[29].content_store 	p_hit[29] 	0.20862952554141
scalar tree_4_3_u06_r9_network.node[29].content_store 	hits[29] 	2524
scalar tree_4_3_u06_r9_network.node[29].content_store 	misses[29] 	9574
scalar tree_4_3_u06_r9_network.node[29].content_store 	decision_yes[29] 	985
scalar tree_4_3_u06_r9_network.node[29].content_store 	decision_no[29] 	8589
scalar tree_4_3_u06_r9_network.node[29].content_store 	decision_ratio[29] 	0.10288280760393
scalar tree_4_3_u06_r9_network.node[30].core_layer 	interests[30] 	11955
scalar tree_4_3_u06_r9_network.node[30].core_layer 	data[30] 	9418
scalar tree_4_3_u06_r9_network.node[30].content_store 	p_hit[30] 	0.21221246340443
scalar tree_4_3_u06_r9_network.node[30].content_store 	hits[30] 	2537
scalar tree_4_3_u06_r9_network.node[30].content_store 	misses[30] 	9418
scalar tree_4_3_u06_r9_network.node[30].content_store 	decision_yes[30] 	904
scalar tree_4_3_u06_r9_network.node[30].content_store 	decision_no[30] 	8514
scalar tree_4_3_u06_r9_network.node[30].content_store 	decision_ratio[30] 	0.095986409004035
scalar tree_4_3_u06_r9_network.node[31].core_layer 	interests[31] 	12029
scalar tree_4_3_u06_r9_network.node[31].core_layer 	data[31] 	9549
scalar tree_4_3_u06_r9_network.node[31].content_store 	p_hit[31] 	0.2061684263031
scalar tree_4_3_u06_r9_network.node[31].content_store 	hits[31] 	2480
scalar tree_4_3_u06_r9_network.node[31].content_store 	misses[31] 	9549
scalar tree_4_3_u06_r9_network.node[31].content_store 	decision_yes[31] 	917
scalar tree_4_3_u06_r9_network.node[31].content_store 	decision_no[31] 	8632
scalar tree_4_3_u06_r9_network.node[31].content_store 	decision_ratio[31] 	0.096030998010263
scalar tree_4_3_u06_r9_network.node[32].core_layer 	interests[32] 	12059
scalar tree_4_3_u06_r9_network.node[32].core_layer 	data[32] 	9574
scalar tree_4_3_u06_r9_network.node[32].content_store 	p_hit[32] 	0.2060701550709
scalar tree_4_3_u06_r9_network.node[32].content_store 	hits[32] 	2485
scalar tree_4_3_u06_r9_network.node[32].content_store 	misses[32] 	9574
scalar tree_4_3_u06_r9_network.node[32].content_store 	decision_yes[32] 	968
scalar tree_4_3_u06_r9_network.node[32].content_store 	decision_no[32] 	8606
scalar tree_4_3_u06_r9_network.node[32].content_store 	decision_ratio[32] 	0.10110716523919
scalar tree_4_3_u06_r9_network.node[33].core_layer 	interests[33] 	12060
scalar tree_4_3_u06_r9_network.node[33].core_layer 	data[33] 	9551
scalar tree_4_3_u06_r9_network.node[33].content_store 	p_hit[33] 	0.20804311774461
scalar tree_4_3_u06_r9_network.node[33].content_store 	hits[33] 	2509
scalar tree_4_3_u06_r9_network.node[33].content_store 	misses[33] 	9551
scalar tree_4_3_u06_r9_network.node[33].content_store 	decision_yes[33] 	970
scalar tree_4_3_u06_r9_network.node[33].content_store 	decision_no[33] 	8581
scalar tree_4_3_u06_r9_network.node[33].content_store 	decision_ratio[33] 	0.10156004606847
scalar tree_4_3_u06_r9_network.node[34].core_layer 	interests[34] 	11997
scalar tree_4_3_u06_r9_network.node[34].core_layer 	data[34] 	9413
scalar tree_4_3_u06_r9_network.node[34].content_store 	p_hit[34] 	0.21530382595649
scalar tree_4_3_u06_r9_network.node[34].content_store 	hits[34] 	2583
scalar tree_4_3_u06_r9_network.node[34].content_store 	misses[34] 	9414
scalar tree_4_3_u06_r9_network.node[34].content_store 	decision_yes[34] 	904
scalar tree_4_3_u06_r9_network.node[34].content_store 	decision_no[34] 	8509
scalar tree_4_3_u06_r9_network.node[34].content_store 	decision_ratio[34] 	0.096037395091894
scalar tree_4_3_u06_r9_network.node[35].core_layer 	interests[35] 	12048
scalar tree_4_3_u06_r9_network.node[35].core_layer 	data[35] 	9528
scalar tree_4_3_u06_r9_network.node[35].content_store 	p_hit[35] 	0.20908034528552
scalar tree_4_3_u06_r9_network.node[35].content_store 	hits[35] 	2519
scalar tree_4_3_u06_r9_network.node[35].content_store 	misses[35] 	9529
scalar tree_4_3_u06_r9_network.node[35].content_store 	decision_yes[35] 	957
scalar tree_4_3_u06_r9_network.node[35].content_store 	decision_no[35] 	8571
scalar tree_4_3_u06_r9_network.node[35].content_store 	decision_ratio[35] 	0.10044080604534
scalar tree_4_3_u06_r9_network.node[36].core_layer 	interests[36] 	11928
scalar tree_4_3_u06_r9_network.node[36].core_layer 	data[36] 	9397
scalar tree_4_3_u06_r9_network.node[36].content_store 	p_hit[36] 	0.21218980549966
scalar tree_4_3_u06_r9_network.node[36].content_store 	hits[36] 	2531
scalar tree_4_3_u06_r9_network.node[36].content_store 	misses[36] 	9397
scalar tree_4_3_u06_r9_network.node[36].content_store 	decision_yes[36] 	1012
scalar tree_4_3_u06_r9_network.node[36].content_store 	decision_no[36] 	8385
scalar tree_4_3_u06_r9_network.node[36].content_store 	decision_ratio[36] 	0.10769394487602
scalar tree_4_3_u06_r9_network.node[37].core_layer 	interests[37] 	12148
scalar tree_4_3_u06_r9_network.node[37].core_layer 	data[37] 	9610
scalar tree_4_3_u06_r9_network.node[37].content_store 	p_hit[37] 	0.20892327955219
scalar tree_4_3_u06_r9_network.node[37].content_store 	hits[37] 	2538
scalar tree_4_3_u06_r9_network.node[37].content_store 	misses[37] 	9610
scalar tree_4_3_u06_r9_network.node[37].content_store 	decision_yes[37] 	976
scalar tree_4_3_u06_r9_network.node[37].content_store 	decision_no[37] 	8634
scalar tree_4_3_u06_r9_network.node[37].content_store 	decision_ratio[37] 	0.10156087408949
scalar tree_4_3_u06_r9_network.node[38].core_layer 	interests[38] 	12113
scalar tree_4_3_u06_r9_network.node[38].core_layer 	data[38] 	9576
scalar tree_4_3_u06_r9_network.node[38].content_store 	p_hit[38] 	0.20936184264839
scalar tree_4_3_u06_r9_network.node[38].content_store 	hits[38] 	2536
scalar tree_4_3_u06_r9_network.node[38].content_store 	misses[38] 	9577
scalar tree_4_3_u06_r9_network.node[38].content_store 	decision_yes[38] 	910
scalar tree_4_3_u06_r9_network.node[38].content_store 	decision_no[38] 	8666
scalar tree_4_3_u06_r9_network.node[38].content_store 	decision_ratio[38] 	0.095029239766082
scalar tree_4_3_u06_r9_network.node[39].core_layer 	interests[39] 	11951
scalar tree_4_3_u06_r9_network.node[39].core_layer 	data[39] 	9541
scalar tree_4_3_u06_r9_network.node[39].content_store 	p_hit[39] 	0.20165676512426
scalar tree_4_3_u06_r9_network.node[39].content_store 	hits[39] 	2410
scalar tree_4_3_u06_r9_network.node[39].content_store 	misses[39] 	9541
scalar tree_4_3_u06_r9_network.node[39].content_store 	decision_yes[39] 	930
scalar tree_4_3_u06_r9_network.node[39].content_store 	decision_no[39] 	8611
scalar tree_4_3_u06_r9_network.node[39].content_store 	decision_ratio[39] 	0.097474059322922
scalar tree_4_3_u06_r9_network.client[13] 	hdistance[13] 	3.0293459338473
scalar tree_4_3_u06_r9_network.client[13] 	downloads[13] 	12063
scalar tree_4_3_u06_r9_network.client[13] 	avg_time[13] 	0.004598620415
scalar tree_4_3_u06_r9_network.client[14] 	hdistance[14] 	3.0306561945782
scalar tree_4_3_u06_r9_network.client[14] 	downloads[14] 	11841
scalar tree_4_3_u06_r9_network.client[14] 	avg_time[14] 	0.00459513658
scalar tree_4_3_u06_r9_network.client[15] 	hdistance[15] 	3.0151252169601
scalar tree_4_3_u06_r9_network.client[15] 	downloads[15] 	12099
scalar tree_4_3_u06_r9_network.client[15] 	avg_time[15] 	0.004573102199
scalar tree_4_3_u06_r9_network.client[16] 	hdistance[16] 	3.039363553493
scalar tree_4_3_u06_r9_network.client[16] 	downloads[16] 	12067
scalar tree_4_3_u06_r9_network.client[16] 	avg_time[16] 	0.004605475776
scalar tree_4_3_u06_r9_network.client[17] 	hdistance[17] 	3.0181482103848
scalar tree_4_3_u06_r9_network.client[17] 	downloads[17] 	11902
scalar tree_4_3_u06_r9_network.client[17] 	avg_time[17] 	0.004582887233
scalar tree_4_3_u06_r9_network.client[18] 	hdistance[18] 	3.0368667446915
scalar tree_4_3_u06_r9_network.client[18] 	downloads[18] 	11962
scalar tree_4_3_u06_r9_network.client[18] 	avg_time[18] 	0.004607420516
scalar tree_4_3_u06_r9_network.client[19] 	hdistance[19] 	3.0485283081798
scalar tree_4_3_u06_r9_network.client[19] 	downloads[19] 	11993
scalar tree_4_3_u06_r9_network.client[19] 	avg_time[19] 	0.004628697045
scalar tree_4_3_u06_r9_network.client[20] 	hdistance[20] 	3.0583631104305
scalar tree_4_3_u06_r9_network.client[20] 	downloads[20] 	11754
scalar tree_4_3_u06_r9_network.client[20] 	avg_time[20] 	0.004638168493
scalar tree_4_3_u06_r9_network.client[21] 	hdistance[21] 	3.0592938041306
scalar tree_4_3_u06_r9_network.client[21] 	downloads[21] 	12008
scalar tree_4_3_u06_r9_network.client[21] 	avg_time[21] 	0.004642286852
scalar tree_4_3_u06_r9_network.client[22] 	hdistance[22] 	3.0624171087533
scalar tree_4_3_u06_r9_network.client[22] 	downloads[22] 	12064
scalar tree_4_3_u06_r9_network.client[22] 	avg_time[22] 	0.004644303441
scalar tree_4_3_u06_r9_network.client[23] 	hdistance[23] 	3.0564800806858
scalar tree_4_3_u06_r9_network.client[23] 	downloads[23] 	11898
scalar tree_4_3_u06_r9_network.client[23] 	avg_time[23] 	0.004637119311
scalar tree_4_3_u06_r9_network.client[24] 	hdistance[24] 	3.0491912069681
scalar tree_4_3_u06_r9_network.client[24] 	downloads[24] 	12055
scalar tree_4_3_u06_r9_network.client[24] 	avg_time[24] 	0.004625648234
scalar tree_4_3_u06_r9_network.client[25] 	hdistance[25] 	3.0450112528132
scalar tree_4_3_u06_r9_network.client[25] 	downloads[25] 	11997
scalar tree_4_3_u06_r9_network.client[25] 	avg_time[25] 	0.004619836895
scalar tree_4_3_u06_r9_network.client[26] 	hdistance[26] 	3.0398312236287
scalar tree_4_3_u06_r9_network.client[26] 	downloads[26] 	11850
scalar tree_4_3_u06_r9_network.client[26] 	avg_time[26] 	0.004615272757
scalar tree_4_3_u06_r9_network.client[27] 	hdistance[27] 	3.0543344035564
scalar tree_4_3_u06_r9_network.client[27] 	downloads[27] 	12147
scalar tree_4_3_u06_r9_network.client[27] 	avg_time[27] 	0.004631430188
scalar tree_4_3_u06_r9_network.client[28] 	hdistance[28] 	3.0381110190555
scalar tree_4_3_u06_r9_network.client[28] 	downloads[28] 	12070
scalar tree_4_3_u06_r9_network.client[28] 	avg_time[28] 	0.004607453462
scalar tree_4_3_u06_r9_network.client[29] 	hdistance[29] 	3.0387667383039
scalar tree_4_3_u06_r9_network.client[29] 	downloads[29] 	12098
scalar tree_4_3_u06_r9_network.client[29] 	avg_time[29] 	0.004611446389
scalar tree_4_3_u06_r9_network.client[30] 	hdistance[30] 	3.0280217482225
scalar tree_4_3_u06_r9_network.client[30] 	downloads[30] 	11955
scalar tree_4_3_u06_r9_network.client[30] 	avg_time[30] 	0.004591715946
scalar tree_4_3_u06_r9_network.client[31] 	hdistance[31] 	3.0345830908637
scalar tree_4_3_u06_r9_network.client[31] 	downloads[31] 	12029
scalar tree_4_3_u06_r9_network.client[31] 	avg_time[31] 	0.004603039645
scalar tree_4_3_u06_r9_network.client[32] 	hdistance[32] 	3.0475993034248
scalar tree_4_3_u06_r9_network.client[32] 	downloads[32] 	12059
scalar tree_4_3_u06_r9_network.client[32] 	avg_time[32] 	0.004621972576
scalar tree_4_3_u06_r9_network.client[33] 	hdistance[33] 	3.0355721393035
scalar tree_4_3_u06_r9_network.client[33] 	downloads[33] 	12060
scalar tree_4_3_u06_r9_network.client[33] 	avg_time[33] 	0.004605635468
scalar tree_4_3_u06_r9_network.client[34] 	hdistance[34] 	3.0092530843615
scalar tree_4_3_u06_r9_network.client[34] 	downloads[34] 	11996
scalar tree_4_3_u06_r9_network.client[34] 	avg_time[34] 	0.00456509802
scalar tree_4_3_u06_r9_network.client[35] 	hdistance[35] 	3.0327882460363
scalar tree_4_3_u06_r9_network.client[35] 	downloads[35] 	12047
scalar tree_4_3_u06_r9_network.client[35] 	avg_time[35] 	0.004602583584
scalar tree_4_3_u06_r9_network.client[36] 	hdistance[36] 	3.0328638497653
scalar tree_4_3_u06_r9_network.client[36] 	downloads[36] 	11928
scalar tree_4_3_u06_r9_network.client[36] 	avg_time[36] 	0.004596714457
scalar tree_4_3_u06_r9_network.client[37] 	hdistance[37] 	3.0379486335199
scalar tree_4_3_u06_r9_network.client[37] 	downloads[37] 	12148
scalar tree_4_3_u06_r9_network.client[37] 	avg_time[37] 	0.004605528748
scalar tree_4_3_u06_r9_network.client[38] 	hdistance[38] 	3.0430151915456
scalar tree_4_3_u06_r9_network.client[38] 	downloads[38] 	12112
scalar tree_4_3_u06_r9_network.client[38] 	avg_time[38] 	0.004614967248
scalar tree_4_3_u06_r9_network.client[39] 	hdistance[39] 	3.0554765291607
scalar tree_4_3_u06_r9_network.client[39] 	downloads[39] 	11951
scalar tree_4_3_u06_r9_network.client[39] 	avg_time[39] 	0.004637098508
