version 2
run General-40-20160819-11:13:48-2054
attr a 0.9
attr cd lcd
attr configname General
attr cr lru
attr datetime 20160819-11:13:48
attr experiment General
attr fsize 1
attr inifile hw5115/scenario_A/NRR-LCD.ini
attr iterationvars "$name=tree_4_3, $un=02, $rep=1, $cd=lcd, $cr=lru, $fsize=1, $a=0.9, $sl=nrr, $ttl=1000, $variance=0.05"
attr iterationvars2 "$name=tree_4_3, $un=02, $rep=1, $cd=lcd, $cr=lru, $fsize=1, $a=0.9, $sl=nrr, $ttl=1000, $variance=0.05, $repetition=0"
attr measurement "$name=tree_4_3, $un=02, $rep=1, $cd=lcd, $cr=lru, $fsize=1, $a=0.9, $sl=nrr, $ttl=1000, $variance=0.05"
attr name tree_4_3
attr network networks.${name}_u${un}_r${rep}_network
attr processid 2054
attr rep 1
attr repetition 0
attr replication #0
attr resultdir results
attr runnumber 40
attr seedset 1
attr sl nrr
attr ttl 1000
attr un 02
attr variance 0.05

scalar . 	a 	0.9
scalar . 	fsize 	1
scalar . 	rep 	1
scalar . 	ttl 	1000
scalar . 	un 	02
scalar . 	variance 	0.05
scalar tree_4_3_u02_r1_network.content_distribution 	repo-0 	0
scalar tree_4_3_u02_r1_network.content_distribution 	client-0 	13
scalar tree_4_3_u02_r1_network.content_distribution 	client-1 	14
scalar tree_4_3_u02_r1_network.content_distribution 	client-2 	15
scalar tree_4_3_u02_r1_network.content_distribution 	client-3 	16
scalar tree_4_3_u02_r1_network.content_distribution 	client-4 	17
scalar tree_4_3_u02_r1_network.content_distribution 	client-5 	18
scalar tree_4_3_u02_r1_network.content_distribution 	client-6 	19
scalar tree_4_3_u02_r1_network.content_distribution 	client-7 	20
scalar tree_4_3_u02_r1_network.content_distribution 	client-8 	21
scalar tree_4_3_u02_r1_network.content_distribution 	client-9 	22
scalar tree_4_3_u02_r1_network.content_distribution 	client-10 	23
scalar tree_4_3_u02_r1_network.content_distribution 	client-11 	24
scalar tree_4_3_u02_r1_network.content_distribution 	client-12 	25
scalar tree_4_3_u02_r1_network.content_distribution 	client-13 	26
scalar tree_4_3_u02_r1_network.content_distribution 	client-14 	27
scalar tree_4_3_u02_r1_network.content_distribution 	client-15 	28
scalar tree_4_3_u02_r1_network.content_distribution 	client-16 	29
scalar tree_4_3_u02_r1_network.content_distribution 	client-17 	30
scalar tree_4_3_u02_r1_network.content_distribution 	client-18 	31
scalar tree_4_3_u02_r1_network.content_distribution 	client-19 	32
scalar tree_4_3_u02_r1_network.content_distribution 	client-20 	33
scalar tree_4_3_u02_r1_network.content_distribution 	client-21 	34
scalar tree_4_3_u02_r1_network.content_distribution 	client-22 	35
scalar tree_4_3_u02_r1_network.content_distribution 	client-23 	36
scalar tree_4_3_u02_r1_network.content_distribution 	client-24 	37
scalar tree_4_3_u02_r1_network.content_distribution 	client-25 	38
scalar tree_4_3_u02_r1_network.content_distribution 	client-26 	39
scalar tree_4_3_u02_r1_network.content_distribution 	repo-0_card 	100000
scalar tree_4_3_u02_r1_network.content_distribution 	repo-0_price 	0
scalar tree_4_3_u02_r1_network.statistics 	stabilization_time 	756.3
scalar tree_4_3_u02_r1_network.statistics 	p_hit 	0.21182063596613
scalar tree_4_3_u02_r1_network.statistics 	interests 	24973.55
scalar tree_4_3_u02_r1_network.statistics 	data 	16882.6
scalar tree_4_3_u02_r1_network.statistics 	hdistance 	2.7189163471745
scalar tree_4_3_u02_r1_network.statistics 	avg_time 	0.004173248237
scalar tree_4_3_u02_r1_network.statistics 	downloads 	323625
scalar tree_4_3_u02_r1_network.statistics 	total_cost 	0
scalar tree_4_3_u02_r1_network.statistics 	total_replicas 	100000
scalar tree_4_3_u02_r1_network.statistics 	inner_hit 	0.367752800309
scalar tree_4_3_u02_r1_network.node[0].core_layer 	interests[0] 	206069
scalar tree_4_3_u02_r1_network.node[0].core_layer 	repo_load[0] 	204611
scalar tree_4_3_u02_r1_network.node[0].core_layer 	data[0] 	0
scalar tree_4_3_u02_r1_network.node[0].core_layer 	repo_int[0] 	204611
scalar tree_4_3_u02_r1_network.node[0].content_store 	p_hit[0] 	0.0070753000208668
scalar tree_4_3_u02_r1_network.node[0].content_store 	hits[0] 	1458
scalar tree_4_3_u02_r1_network.node[0].content_store 	misses[0] 	204611
scalar tree_4_3_u02_r1_network.node[0].content_store 	decision_yes[0] 	204611
scalar tree_4_3_u02_r1_network.node[0].content_store 	decision_no[0] 	0
scalar tree_4_3_u02_r1_network.node[0].content_store 	decision_ratio[0] 	1
scalar tree_4_3_u02_r1_network.node[1].core_layer 	interests[1] 	103610
scalar tree_4_3_u02_r1_network.node[1].core_layer 	data[1] 	101188
scalar tree_4_3_u02_r1_network.node[1].content_store 	p_hit[1] 	0.02335681883988
scalar tree_4_3_u02_r1_network.node[1].content_store 	hits[1] 	2420
scalar tree_4_3_u02_r1_network.node[1].content_store 	misses[1] 	101190
scalar tree_4_3_u02_r1_network.node[1].content_store 	decision_yes[1] 	2659
scalar tree_4_3_u02_r1_network.node[1].content_store 	decision_no[1] 	98529
scalar tree_4_3_u02_r1_network.node[1].content_store 	decision_ratio[1] 	0.026277819504289
scalar tree_4_3_u02_r1_network.node[2].core_layer 	interests[2] 	88826
scalar tree_4_3_u02_r1_network.node[2].core_layer 	data[2] 	86633
scalar tree_4_3_u02_r1_network.node[2].content_store 	p_hit[2] 	0.024666201337446
scalar tree_4_3_u02_r1_network.node[2].content_store 	hits[2] 	2191
scalar tree_4_3_u02_r1_network.node[2].content_store 	misses[2] 	86635
scalar tree_4_3_u02_r1_network.node[2].content_store 	decision_yes[2] 	2413
scalar tree_4_3_u02_r1_network.node[2].content_store 	decision_no[2] 	84218
scalar tree_4_3_u02_r1_network.node[2].content_store 	decision_ratio[2] 	0.027853770590204
scalar tree_4_3_u02_r1_network.node[3].core_layer 	interests[3] 	25808
scalar tree_4_3_u02_r1_network.node[3].core_layer 	data[3] 	24269
scalar tree_4_3_u02_r1_network.node[3].content_store 	p_hit[3] 	0.059632672039678
scalar tree_4_3_u02_r1_network.node[3].content_store 	hits[3] 	1539
scalar tree_4_3_u02_r1_network.node[3].content_store 	misses[3] 	24269
scalar tree_4_3_u02_r1_network.node[3].content_store 	decision_yes[3] 	1102
scalar tree_4_3_u02_r1_network.node[3].content_store 	decision_no[3] 	23167
scalar tree_4_3_u02_r1_network.node[3].content_store 	decision_ratio[3] 	0.045407721784993
scalar tree_4_3_u02_r1_network.node[4].core_layer 	interests[4] 	26722
scalar tree_4_3_u02_r1_network.node[4].core_layer 	data[4] 	25190
scalar tree_4_3_u02_r1_network.node[4].content_store 	p_hit[4] 	0.057331038095951
scalar tree_4_3_u02_r1_network.node[4].content_store 	hits[4] 	1532
scalar tree_4_3_u02_r1_network.node[4].content_store 	misses[4] 	25190
scalar tree_4_3_u02_r1_network.node[4].content_store 	decision_yes[4] 	1425
scalar tree_4_3_u02_r1_network.node[4].content_store 	decision_no[4] 	23765
scalar tree_4_3_u02_r1_network.node[4].content_store 	decision_ratio[4] 	0.056570067487098
scalar tree_4_3_u02_r1_network.node[5].core_layer 	interests[5] 	35384
scalar tree_4_3_u02_r1_network.node[5].core_layer 	data[5] 	33359
scalar tree_4_3_u02_r1_network.node[5].content_store 	p_hit[5] 	0.05720099479991
scalar tree_4_3_u02_r1_network.node[5].content_store 	hits[5] 	2024
scalar tree_4_3_u02_r1_network.node[5].content_store 	misses[5] 	33360
scalar tree_4_3_u02_r1_network.node[5].content_store 	decision_yes[5] 	1929
scalar tree_4_3_u02_r1_network.node[5].content_store 	decision_no[5] 	31430
scalar tree_4_3_u02_r1_network.node[5].content_store 	decision_ratio[5] 	0.057825474384724
scalar tree_4_3_u02_r1_network.node[6].core_layer 	interests[6] 	18308
scalar tree_4_3_u02_r1_network.node[6].core_layer 	data[6] 	16755
scalar tree_4_3_u02_r1_network.node[6].content_store 	p_hit[6] 	0.084826305440245
scalar tree_4_3_u02_r1_network.node[6].content_store 	hits[6] 	1553
scalar tree_4_3_u02_r1_network.node[6].content_store 	misses[6] 	16755
scalar tree_4_3_u02_r1_network.node[6].content_store 	decision_yes[6] 	1046
scalar tree_4_3_u02_r1_network.node[6].content_store 	decision_no[6] 	15709
scalar tree_4_3_u02_r1_network.node[6].content_store 	decision_ratio[6] 	0.062429125634139
scalar tree_4_3_u02_r1_network.node[7].core_layer 	interests[7] 	26691
scalar tree_4_3_u02_r1_network.node[7].core_layer 	data[7] 	25147
scalar tree_4_3_u02_r1_network.node[7].content_store 	p_hit[7] 	0.057847214416845
scalar tree_4_3_u02_r1_network.node[7].content_store 	hits[7] 	1544
scalar tree_4_3_u02_r1_network.node[7].content_store 	misses[7] 	25147
scalar tree_4_3_u02_r1_network.node[7].content_store 	decision_yes[7] 	1295
scalar tree_4_3_u02_r1_network.node[7].content_store 	decision_no[7] 	23852
scalar tree_4_3_u02_r1_network.node[7].content_store 	decision_ratio[7] 	0.05149719648467
scalar tree_4_3_u02_r1_network.node[8].core_layer 	interests[8] 	26075
scalar tree_4_3_u02_r1_network.node[8].core_layer 	data[8] 	24615
scalar tree_4_3_u02_r1_network.node[8].content_store 	p_hit[8] 	0.055953978906999
scalar tree_4_3_u02_r1_network.node[8].content_store 	hits[8] 	1459
scalar tree_4_3_u02_r1_network.node[8].content_store 	misses[8] 	24616
scalar tree_4_3_u02_r1_network.node[8].content_store 	decision_yes[8] 	1135
scalar tree_4_3_u02_r1_network.node[8].content_store 	decision_no[8] 	23480
scalar tree_4_3_u02_r1_network.node[8].content_store 	decision_ratio[8] 	0.046110095470242
scalar tree_4_3_u02_r1_network.node[9].core_layer 	interests[9] 	27473
scalar tree_4_3_u02_r1_network.node[9].core_layer 	data[9] 	25514
scalar tree_4_3_u02_r1_network.node[9].content_store 	p_hit[9] 	0.071233574782514
scalar tree_4_3_u02_r1_network.node[9].content_store 	hits[9] 	1957
scalar tree_4_3_u02_r1_network.node[9].content_store 	misses[9] 	25516
scalar tree_4_3_u02_r1_network.node[9].content_store 	decision_yes[9] 	1786
scalar tree_4_3_u02_r1_network.node[9].content_store 	decision_no[9] 	23728
scalar tree_4_3_u02_r1_network.node[9].content_store 	decision_ratio[9] 	0.070000783883358
scalar tree_4_3_u02_r1_network.node[10].core_layer 	interests[10] 	36130
scalar tree_4_3_u02_r1_network.node[10].core_layer 	data[10] 	33387
scalar tree_4_3_u02_r1_network.node[10].content_store 	p_hit[10] 	0.075864932189316
scalar tree_4_3_u02_r1_network.node[10].content_store 	hits[10] 	2741
scalar tree_4_3_u02_r1_network.node[10].content_store 	misses[10] 	33389
scalar tree_4_3_u02_r1_network.node[10].content_store 	decision_yes[10] 	2874
scalar tree_4_3_u02_r1_network.node[10].content_store 	decision_no[10] 	30513
scalar tree_4_3_u02_r1_network.node[10].content_store 	decision_ratio[10] 	0.08608140893162
scalar tree_4_3_u02_r1_network.node[11].core_layer 	interests[11] 	19673
scalar tree_4_3_u02_r1_network.node[11].core_layer 	data[11] 	17536
scalar tree_4_3_u02_r1_network.node[11].content_store 	p_hit[11] 	0.10862603568342
scalar tree_4_3_u02_r1_network.node[11].content_store 	hits[11] 	2137
scalar tree_4_3_u02_r1_network.node[11].content_store 	misses[11] 	17536
scalar tree_4_3_u02_r1_network.node[11].content_store 	decision_yes[11] 	1727
scalar tree_4_3_u02_r1_network.node[11].content_store 	decision_no[11] 	15809
scalar tree_4_3_u02_r1_network.node[11].content_store 	decision_ratio[11] 	0.098483120437956
scalar tree_4_3_u02_r1_network.node[12].core_layer 	interests[12] 	26283
scalar tree_4_3_u02_r1_network.node[12].core_layer 	data[12] 	24996
scalar tree_4_3_u02_r1_network.node[12].content_store 	p_hit[12] 	0.048967012898071
scalar tree_4_3_u02_r1_network.node[12].content_store 	hits[12] 	1287
scalar tree_4_3_u02_r1_network.node[12].content_store 	misses[12] 	24996
scalar tree_4_3_u02_r1_network.node[12].content_store 	decision_yes[12] 	1189
scalar tree_4_3_u02_r1_network.node[12].content_store 	decision_no[12] 	23807
scalar tree_4_3_u02_r1_network.node[12].content_store 	decision_ratio[12] 	0.047567610817731
scalar tree_4_3_u02_r1_network.node[13].core_layer 	interests[13] 	12153
scalar tree_4_3_u02_r1_network.node[13].core_layer 	data[13] 	8699
scalar tree_4_3_u02_r1_network.node[13].content_store 	p_hit[13] 	0.28420966016621
scalar tree_4_3_u02_r1_network.node[13].content_store 	hits[13] 	3454
scalar tree_4_3_u02_r1_network.node[13].content_store 	misses[13] 	8699
scalar tree_4_3_u02_r1_network.node[13].content_store 	decision_yes[13] 	412
scalar tree_4_3_u02_r1_network.node[13].content_store 	decision_no[13] 	8287
scalar tree_4_3_u02_r1_network.node[13].content_store 	decision_ratio[13] 	0.047361765720198
scalar tree_4_3_u02_r1_network.node[14].core_layer 	interests[14] 	12177
scalar tree_4_3_u02_r1_network.node[14].core_layer 	data[14] 	8683
scalar tree_4_3_u02_r1_network.node[14].content_store 	p_hit[14] 	0.28685226246202
scalar tree_4_3_u02_r1_network.node[14].content_store 	hits[14] 	3493
scalar tree_4_3_u02_r1_network.node[14].content_store 	misses[14] 	8684
scalar tree_4_3_u02_r1_network.node[14].content_store 	decision_yes[14] 	340
scalar tree_4_3_u02_r1_network.node[14].content_store 	decision_no[14] 	8343
scalar tree_4_3_u02_r1_network.node[14].content_store 	decision_ratio[14] 	0.039156973396292
scalar tree_4_3_u02_r1_network.node[15].core_layer 	interests[15] 	12348
scalar tree_4_3_u02_r1_network.node[15].core_layer 	data[15] 	8850
scalar tree_4_3_u02_r1_network.node[15].content_store 	p_hit[15] 	0.28328474246842
scalar tree_4_3_u02_r1_network.node[15].content_store 	hits[15] 	3498
scalar tree_4_3_u02_r1_network.node[15].content_store 	misses[15] 	8850
scalar tree_4_3_u02_r1_network.node[15].content_store 	decision_yes[15] 	378
scalar tree_4_3_u02_r1_network.node[15].content_store 	decision_no[15] 	8472
scalar tree_4_3_u02_r1_network.node[15].content_store 	decision_ratio[15] 	0.04271186440678
scalar tree_4_3_u02_r1_network.node[16].core_layer 	interests[16] 	12347
scalar tree_4_3_u02_r1_network.node[16].core_layer 	data[16] 	8840
scalar tree_4_3_u02_r1_network.node[16].content_store 	p_hit[16] 	0.28403660808294
scalar tree_4_3_u02_r1_network.node[16].content_store 	hits[16] 	3507
scalar tree_4_3_u02_r1_network.node[16].content_store 	misses[16] 	8840
scalar tree_4_3_u02_r1_network.node[16].content_store 	decision_yes[16] 	420
scalar tree_4_3_u02_r1_network.node[16].content_store 	decision_no[16] 	8420
scalar tree_4_3_u02_r1_network.node[16].content_store 	decision_ratio[16] 	0.047511312217195
scalar tree_4_3_u02_r1_network.node[17].core_layer 	interests[17] 	12239
scalar tree_4_3_u02_r1_network.node[17].core_layer 	data[17] 	8761
scalar tree_4_3_u02_r1_network.node[17].content_store 	p_hit[17] 	0.28401013154669
scalar tree_4_3_u02_r1_network.node[17].content_store 	hits[17] 	3476
scalar tree_4_3_u02_r1_network.node[17].content_store 	misses[17] 	8763
scalar tree_4_3_u02_r1_network.node[17].content_store 	decision_yes[17] 	386
scalar tree_4_3_u02_r1_network.node[17].content_store 	decision_no[17] 	8375
scalar tree_4_3_u02_r1_network.node[17].content_store 	decision_ratio[17] 	0.044058897386143
scalar tree_4_3_u02_r1_network.node[18].core_layer 	interests[18] 	12323
scalar tree_4_3_u02_r1_network.node[18].core_layer 	data[18] 	8805
scalar tree_4_3_u02_r1_network.node[18].content_store 	p_hit[18] 	0.28548243122616
scalar tree_4_3_u02_r1_network.node[18].content_store 	hits[18] 	3518
scalar tree_4_3_u02_r1_network.node[18].content_store 	misses[18] 	8805
scalar tree_4_3_u02_r1_network.node[18].content_store 	decision_yes[18] 	443
scalar tree_4_3_u02_r1_network.node[18].content_store 	decision_no[18] 	8362
scalar tree_4_3_u02_r1_network.node[18].content_store 	decision_ratio[18] 	0.050312322544009
scalar tree_4_3_u02_r1_network.node[19].core_layer 	interests[19] 	12150
scalar tree_4_3_u02_r1_network.node[19].core_layer 	data[19] 	8804
scalar tree_4_3_u02_r1_network.node[19].content_store 	p_hit[19] 	0.27539094650206
scalar tree_4_3_u02_r1_network.node[19].content_store 	hits[19] 	3346
scalar tree_4_3_u02_r1_network.node[19].content_store 	misses[19] 	8804
scalar tree_4_3_u02_r1_network.node[19].content_store 	decision_yes[19] 	396
scalar tree_4_3_u02_r1_network.node[19].content_store 	decision_no[19] 	8408
scalar tree_4_3_u02_r1_network.node[19].content_store 	decision_ratio[19] 	0.044979554747842
scalar tree_4_3_u02_r1_network.node[20].core_layer 	interests[20] 	12612
scalar tree_4_3_u02_r1_network.node[20].core_layer 	data[20] 	8823
scalar tree_4_3_u02_r1_network.node[20].content_store 	p_hit[20] 	0.30034887408817
scalar tree_4_3_u02_r1_network.node[20].content_store 	hits[20] 	3788
scalar tree_4_3_u02_r1_network.node[20].content_store 	misses[20] 	8824
scalar tree_4_3_u02_r1_network.node[20].content_store 	decision_yes[20] 	660
scalar tree_4_3_u02_r1_network.node[20].content_store 	decision_no[20] 	8163
scalar tree_4_3_u02_r1_network.node[20].content_store 	decision_ratio[20] 	0.074804488269296
scalar tree_4_3_u02_r1_network.node[21].core_layer 	interests[21] 	12046
scalar tree_4_3_u02_r1_network.node[21].core_layer 	data[21] 	8599
scalar tree_4_3_u02_r1_network.node[21].content_store 	p_hit[21] 	0.28615307986053
scalar tree_4_3_u02_r1_network.node[21].content_store 	hits[21] 	3447
scalar tree_4_3_u02_r1_network.node[21].content_store 	misses[21] 	8599
scalar tree_4_3_u02_r1_network.node[21].content_store 	decision_yes[21] 	378
scalar tree_4_3_u02_r1_network.node[21].content_store 	decision_no[21] 	8221
scalar tree_4_3_u02_r1_network.node[21].content_store 	decision_ratio[21] 	0.04395859983719
scalar tree_4_3_u02_r1_network.node[22].core_layer 	interests[22] 	12254
scalar tree_4_3_u02_r1_network.node[22].core_layer 	data[22] 	8727
scalar tree_4_3_u02_r1_network.node[22].content_store 	p_hit[22] 	0.28782438387465
scalar tree_4_3_u02_r1_network.node[22].content_store 	hits[22] 	3527
scalar tree_4_3_u02_r1_network.node[22].content_store 	misses[22] 	8727
scalar tree_4_3_u02_r1_network.node[22].content_store 	decision_yes[22] 	376
scalar tree_4_3_u02_r1_network.node[22].content_store 	decision_no[22] 	8351
scalar tree_4_3_u02_r1_network.node[22].content_store 	decision_ratio[22] 	0.043084679729575
scalar tree_4_3_u02_r1_network.node[23].core_layer 	interests[23] 	12297
scalar tree_4_3_u02_r1_network.node[23].core_layer 	data[23] 	8791
scalar tree_4_3_u02_r1_network.node[23].content_store 	p_hit[23] 	0.28511018947711
scalar tree_4_3_u02_r1_network.node[23].content_store 	hits[23] 	3506
scalar tree_4_3_u02_r1_network.node[23].content_store 	misses[23] 	8791
scalar tree_4_3_u02_r1_network.node[23].content_store 	decision_yes[23] 	389
scalar tree_4_3_u02_r1_network.node[23].content_store 	decision_no[23] 	8402
scalar tree_4_3_u02_r1_network.node[23].content_store 	decision_ratio[23] 	0.044249800932772
scalar tree_4_3_u02_r1_network.node[24].core_layer 	interests[24] 	12242
scalar tree_4_3_u02_r1_network.node[24].core_layer 	data[24] 	8710
scalar tree_4_3_u02_r1_network.node[24].content_store 	p_hit[24] 	0.28851494853782
scalar tree_4_3_u02_r1_network.node[24].content_store 	hits[24] 	3532
scalar tree_4_3_u02_r1_network.node[24].content_store 	misses[24] 	8710
scalar tree_4_3_u02_r1_network.node[24].content_store 	decision_yes[24] 	389
scalar tree_4_3_u02_r1_network.node[24].content_store 	decision_no[24] 	8321
scalar tree_4_3_u02_r1_network.node[24].content_store 	decision_ratio[24] 	0.044661308840413
scalar tree_4_3_u02_r1_network.node[25].core_layer 	interests[25] 	12077
scalar tree_4_3_u02_r1_network.node[25].core_layer 	data[25] 	8657
scalar tree_4_3_u02_r1_network.node[25].content_store 	p_hit[25] 	0.283182909663
scalar tree_4_3_u02_r1_network.node[25].content_store 	hits[25] 	3420
scalar tree_4_3_u02_r1_network.node[25].content_store 	misses[25] 	8657
scalar tree_4_3_u02_r1_network.node[25].content_store 	decision_yes[25] 	382
scalar tree_4_3_u02_r1_network.node[25].content_store 	decision_no[25] 	8275
scalar tree_4_3_u02_r1_network.node[25].content_store 	decision_ratio[25] 	0.044126140695391
scalar tree_4_3_u02_r1_network.node[26].core_layer 	interests[26] 	12091
scalar tree_4_3_u02_r1_network.node[26].core_layer 	data[26] 	8654
scalar tree_4_3_u02_r1_network.node[26].content_store 	p_hit[26] 	0.28426102059383
scalar tree_4_3_u02_r1_network.node[26].content_store 	hits[26] 	3437
scalar tree_4_3_u02_r1_network.node[26].content_store 	misses[26] 	8654
scalar tree_4_3_u02_r1_network.node[26].content_store 	decision_yes[26] 	363
scalar tree_4_3_u02_r1_network.node[26].content_store 	decision_no[26] 	8291
scalar tree_4_3_u02_r1_network.node[26].content_store 	decision_ratio[26] 	0.041945920961405
scalar tree_4_3_u02_r1_network.node[27].core_layer 	interests[27] 	12581
scalar tree_4_3_u02_r1_network.node[27].core_layer 	data[27] 	8791
scalar tree_4_3_u02_r1_network.node[27].content_store 	p_hit[27] 	0.30116842858278
scalar tree_4_3_u02_r1_network.node[27].content_store 	hits[27] 	3789
scalar tree_4_3_u02_r1_network.node[27].content_store 	misses[27] 	8792
scalar tree_4_3_u02_r1_network.node[27].content_store 	decision_yes[27] 	640
scalar tree_4_3_u02_r1_network.node[27].content_store 	decision_no[27] 	8151
scalar tree_4_3_u02_r1_network.node[27].content_store 	decision_ratio[27] 	0.072801729041065
scalar tree_4_3_u02_r1_network.node[28].core_layer 	interests[28] 	12488
scalar tree_4_3_u02_r1_network.node[28].core_layer 	data[28] 	8884
scalar tree_4_3_u02_r1_network.node[28].content_store 	p_hit[28] 	0.28851697629725
scalar tree_4_3_u02_r1_network.node[28].content_store 	hits[28] 	3603
scalar tree_4_3_u02_r1_network.node[28].content_store 	misses[28] 	8885
scalar tree_4_3_u02_r1_network.node[28].content_store 	decision_yes[28] 	402
scalar tree_4_3_u02_r1_network.node[28].content_store 	decision_no[28] 	8482
scalar tree_4_3_u02_r1_network.node[28].content_store 	decision_ratio[28] 	0.045249887438091
scalar tree_4_3_u02_r1_network.node[29].core_layer 	interests[29] 	12241
scalar tree_4_3_u02_r1_network.node[29].core_layer 	data[29] 	8759
scalar tree_4_3_u02_r1_network.node[29].content_store 	p_hit[29] 	0.28445388448656
scalar tree_4_3_u02_r1_network.node[29].content_store 	hits[29] 	3482
scalar tree_4_3_u02_r1_network.node[29].content_store 	misses[29] 	8759
scalar tree_4_3_u02_r1_network.node[29].content_store 	decision_yes[29] 	388
scalar tree_4_3_u02_r1_network.node[29].content_store 	decision_no[29] 	8371
scalar tree_4_3_u02_r1_network.node[29].content_store 	decision_ratio[29] 	0.044297294211668
scalar tree_4_3_u02_r1_network.node[30].core_layer 	interests[30] 	12273
scalar tree_4_3_u02_r1_network.node[30].core_layer 	data[30] 	8765
scalar tree_4_3_u02_r1_network.node[30].content_store 	p_hit[30] 	0.28583068524403
scalar tree_4_3_u02_r1_network.node[30].content_store 	hits[30] 	3508
scalar tree_4_3_u02_r1_network.node[30].content_store 	misses[30] 	8765
scalar tree_4_3_u02_r1_network.node[30].content_store 	decision_yes[30] 	408
scalar tree_4_3_u02_r1_network.node[30].content_store 	decision_no[30] 	8357
scalar tree_4_3_u02_r1_network.node[30].content_store 	decision_ratio[30] 	0.04654877353109
scalar tree_4_3_u02_r1_network.node[31].core_layer 	interests[31] 	12372
scalar tree_4_3_u02_r1_network.node[31].core_layer 	data[31] 	8826
scalar tree_4_3_u02_r1_network.node[31].content_store 	p_hit[31] 	0.28645328160362
scalar tree_4_3_u02_r1_network.node[31].content_store 	hits[31] 	3544
scalar tree_4_3_u02_r1_network.node[31].content_store 	misses[31] 	8828
scalar tree_4_3_u02_r1_network.node[31].content_store 	decision_yes[31] 	477
scalar tree_4_3_u02_r1_network.node[31].content_store 	decision_no[31] 	8349
scalar tree_4_3_u02_r1_network.node[31].content_store 	decision_ratio[31] 	0.054044867437118
scalar tree_4_3_u02_r1_network.node[32].core_layer 	interests[32] 	12384
scalar tree_4_3_u02_r1_network.node[32].core_layer 	data[32] 	8861
scalar tree_4_3_u02_r1_network.node[32].content_store 	p_hit[32] 	0.2843992248062
scalar tree_4_3_u02_r1_network.node[32].content_store 	hits[32] 	3522
scalar tree_4_3_u02_r1_network.node[32].content_store 	misses[32] 	8862
scalar tree_4_3_u02_r1_network.node[32].content_store 	decision_yes[32] 	442
scalar tree_4_3_u02_r1_network.node[32].content_store 	decision_no[32] 	8419
scalar tree_4_3_u02_r1_network.node[32].content_store 	decision_ratio[32] 	0.049881503216341
scalar tree_4_3_u02_r1_network.node[33].core_layer 	interests[33] 	12509
scalar tree_4_3_u02_r1_network.node[33].core_layer 	data[33] 	8876
scalar tree_4_3_u02_r1_network.node[33].content_store 	p_hit[33] 	0.29043088975937
scalar tree_4_3_u02_r1_network.node[33].content_store 	hits[33] 	3633
scalar tree_4_3_u02_r1_network.node[33].content_store 	misses[33] 	8876
scalar tree_4_3_u02_r1_network.node[33].content_store 	decision_yes[33] 	415
scalar tree_4_3_u02_r1_network.node[33].content_store 	decision_no[33] 	8461
scalar tree_4_3_u02_r1_network.node[33].content_store 	decision_ratio[33] 	0.046755295178008
scalar tree_4_3_u02_r1_network.node[34].core_layer 	interests[34] 	12587
scalar tree_4_3_u02_r1_network.node[34].core_layer 	data[34] 	8638
scalar tree_4_3_u02_r1_network.node[34].content_store 	p_hit[34] 	0.31373639469294
scalar tree_4_3_u02_r1_network.node[34].content_store 	hits[34] 	3949
scalar tree_4_3_u02_r1_network.node[34].content_store 	misses[34] 	8638
scalar tree_4_3_u02_r1_network.node[34].content_store 	decision_yes[34] 	680
scalar tree_4_3_u02_r1_network.node[34].content_store 	decision_no[34] 	7958
scalar tree_4_3_u02_r1_network.node[34].content_store 	decision_ratio[34] 	0.078721926371845
scalar tree_4_3_u02_r1_network.node[35].core_layer 	interests[35] 	12403
scalar tree_4_3_u02_r1_network.node[35].core_layer 	data[35] 	8978
scalar tree_4_3_u02_r1_network.node[35].content_store 	p_hit[35] 	0.27614286866081
scalar tree_4_3_u02_r1_network.node[35].content_store 	hits[35] 	3425
scalar tree_4_3_u02_r1_network.node[35].content_store 	misses[35] 	8978
scalar tree_4_3_u02_r1_network.node[35].content_store 	decision_yes[35] 	416
scalar tree_4_3_u02_r1_network.node[35].content_store 	decision_no[35] 	8562
scalar tree_4_3_u02_r1_network.node[35].content_store 	decision_ratio[35] 	0.046335486745378
scalar tree_4_3_u02_r1_network.node[36].core_layer 	interests[36] 	12305
scalar tree_4_3_u02_r1_network.node[36].core_layer 	data[36] 	8847
scalar tree_4_3_u02_r1_network.node[36].content_store 	p_hit[36] 	0.28102397399431
scalar tree_4_3_u02_r1_network.node[36].content_store 	hits[36] 	3458
scalar tree_4_3_u02_r1_network.node[36].content_store 	misses[36] 	8847
scalar tree_4_3_u02_r1_network.node[36].content_store 	decision_yes[36] 	405
scalar tree_4_3_u02_r1_network.node[36].content_store 	decision_no[36] 	8442
scalar tree_4_3_u02_r1_network.node[36].content_store 	decision_ratio[36] 	0.045778229908444
scalar tree_4_3_u02_r1_network.node[37].core_layer 	interests[37] 	12053
scalar tree_4_3_u02_r1_network.node[37].core_layer 	data[37] 	8660
scalar tree_4_3_u02_r1_network.node[37].content_store 	p_hit[37] 	0.28150667883514
scalar tree_4_3_u02_r1_network.node[37].content_store 	hits[37] 	3393
scalar tree_4_3_u02_r1_network.node[37].content_store 	misses[37] 	8660
scalar tree_4_3_u02_r1_network.node[37].content_store 	decision_yes[37] 	384
scalar tree_4_3_u02_r1_network.node[37].content_store 	decision_no[37] 	8276
scalar tree_4_3_u02_r1_network.node[37].content_store 	decision_ratio[37] 	0.044341801385681
scalar tree_4_3_u02_r1_network.node[38].core_layer 	interests[38] 	12213
scalar tree_4_3_u02_r1_network.node[38].core_layer 	data[38] 	8744
scalar tree_4_3_u02_r1_network.node[38].content_store 	p_hit[38] 	0.2840415950217
scalar tree_4_3_u02_r1_network.node[38].content_store 	hits[38] 	3469
scalar tree_4_3_u02_r1_network.node[38].content_store 	misses[38] 	8744
scalar tree_4_3_u02_r1_network.node[38].content_store 	decision_yes[38] 	388
scalar tree_4_3_u02_r1_network.node[38].content_store 	decision_no[38] 	8356
scalar tree_4_3_u02_r1_network.node[38].content_store 	decision_ratio[38] 	0.044373284537969
scalar tree_4_3_u02_r1_network.node[39].core_layer 	interests[39] 	12125
scalar tree_4_3_u02_r1_network.node[39].core_layer 	data[39] 	8683
scalar tree_4_3_u02_r1_network.node[39].content_store 	p_hit[39] 	0.28387628865979
scalar tree_4_3_u02_r1_network.node[39].content_store 	hits[39] 	3442
scalar tree_4_3_u02_r1_network.node[39].content_store 	misses[39] 	8683
scalar tree_4_3_u02_r1_network.node[39].content_store 	decision_yes[39] 	361
scalar tree_4_3_u02_r1_network.node[39].content_store 	decision_no[39] 	8322
scalar tree_4_3_u02_r1_network.node[39].content_store 	decision_ratio[39] 	0.041575492341357
scalar tree_4_3_u02_r1_network.client[13] 	hdistance[13] 	2.7282042667563
scalar tree_4_3_u02_r1_network.client[13] 	downloads[13] 	11906
scalar tree_4_3_u02_r1_network.client[13] 	avg_time[13] 	0.004185281768
scalar tree_4_3_u02_r1_network.client[14] 	hdistance[14] 	2.7214159885916
scalar tree_4_3_u02_r1_network.client[14] 	downloads[14] 	11921
scalar tree_4_3_u02_r1_network.client[14] 	avg_time[14] 	0.004183409557
scalar tree_4_3_u02_r1_network.client[15] 	hdistance[15] 	2.7376778035065
scalar tree_4_3_u02_r1_network.client[15] 	downloads[15] 	12092
scalar tree_4_3_u02_r1_network.client[15] 	avg_time[15] 	0.004205422061
scalar tree_4_3_u02_r1_network.client[16] 	hdistance[16] 	2.7282302206004
scalar tree_4_3_u02_r1_network.client[16] 	downloads[16] 	12058
scalar tree_4_3_u02_r1_network.client[16] 	avg_time[16] 	0.004183930754
scalar tree_4_3_u02_r1_network.client[17] 	hdistance[17] 	2.7355281896624
scalar tree_4_3_u02_r1_network.client[17] 	downloads[17] 	11937
scalar tree_4_3_u02_r1_network.client[17] 	avg_time[17] 	0.004197214757
scalar tree_4_3_u02_r1_network.client[18] 	hdistance[18] 	2.7129337539432
scalar tree_4_3_u02_r1_network.client[18] 	downloads[18] 	12046
scalar tree_4_3_u02_r1_network.client[18] 	avg_time[18] 	0.004164212755
scalar tree_4_3_u02_r1_network.client[19] 	hdistance[19] 	2.7447786131997
scalar tree_4_3_u02_r1_network.client[19] 	downloads[19] 	11970
scalar tree_4_3_u02_r1_network.client[19] 	avg_time[19] 	0.004216204185
scalar tree_4_3_u02_r1_network.client[20] 	hdistance[20] 	2.7052789592194
scalar tree_4_3_u02_r1_network.client[20] 	downloads[20] 	11991
scalar tree_4_3_u02_r1_network.client[20] 	avg_time[20] 	0.004138100556
scalar tree_4_3_u02_r1_network.client[21] 	hdistance[21] 	2.6995119488388
scalar tree_4_3_u02_r1_network.client[21] 	downloads[21] 	11884
scalar tree_4_3_u02_r1_network.client[21] 	avg_time[21] 	0.004146244079
scalar tree_4_3_u02_r1_network.client[22] 	hdistance[22] 	2.721483205853
scalar tree_4_3_u02_r1_network.client[22] 	downloads[22] 	12028
scalar tree_4_3_u02_r1_network.client[22] 	avg_time[22] 	0.004169434955
scalar tree_4_3_u02_r1_network.client[23] 	hdistance[23] 	2.7245176782314
scalar tree_4_3_u02_r1_network.client[23] 	downloads[23] 	12077
scalar tree_4_3_u02_r1_network.client[23] 	avg_time[23] 	0.004179014927
scalar tree_4_3_u02_r1_network.client[24] 	hdistance[24] 	2.7118122034463
scalar tree_4_3_u02_r1_network.client[24] 	downloads[24] 	12013
scalar tree_4_3_u02_r1_network.client[24] 	avg_time[24] 	0.004161433814
scalar tree_4_3_u02_r1_network.client[25] 	hdistance[25] 	2.7250336247478
scalar tree_4_3_u02_r1_network.client[25] 	downloads[25] 	11896
scalar tree_4_3_u02_r1_network.client[25] 	avg_time[25] 	0.004178040067
scalar tree_4_3_u02_r1_network.client[26] 	hdistance[26] 	2.7176539687867
scalar tree_4_3_u02_r1_network.client[26] 	downloads[26] 	11918
scalar tree_4_3_u02_r1_network.client[26] 	avg_time[26] 	0.004167474749
scalar tree_4_3_u02_r1_network.client[27] 	hdistance[27] 	2.6971590435725
scalar tree_4_3_u02_r1_network.client[27] 	downloads[27] 	12003
scalar tree_4_3_u02_r1_network.client[27] 	avg_time[27] 	0.004124650677
scalar tree_4_3_u02_r1_network.client[28] 	hdistance[28] 	2.7173895220136
scalar tree_4_3_u02_r1_network.client[28] 	downloads[28] 	12197
scalar tree_4_3_u02_r1_network.client[28] 	avg_time[28] 	0.004165447473
scalar tree_4_3_u02_r1_network.client[29] 	hdistance[29] 	2.7366571858792
scalar tree_4_3_u02_r1_network.client[29] 	downloads[29] 	11954
scalar tree_4_3_u02_r1_network.client[29] 	avg_time[29] 	0.004191319839
scalar tree_4_3_u02_r1_network.client[30] 	hdistance[30] 	2.7234753550543
scalar tree_4_3_u02_r1_network.client[30] 	downloads[30] 	11970
scalar tree_4_3_u02_r1_network.client[30] 	avg_time[30] 	0.004178443126
scalar tree_4_3_u02_r1_network.client[31] 	hdistance[31] 	2.6926544240401
scalar tree_4_3_u02_r1_network.client[31] 	downloads[31] 	11980
scalar tree_4_3_u02_r1_network.client[31] 	avg_time[31] 	0.004148411033
scalar tree_4_3_u02_r1_network.client[32] 	hdistance[32] 	2.7180300500835
scalar tree_4_3_u02_r1_network.client[32] 	downloads[32] 	11980
scalar tree_4_3_u02_r1_network.client[32] 	avg_time[32] 	0.004184585875
scalar tree_4_3_u02_r1_network.client[33] 	hdistance[33] 	2.7041601190968
scalar tree_4_3_u02_r1_network.client[33] 	downloads[33] 	12091
scalar tree_4_3_u02_r1_network.client[33] 	avg_time[33] 	0.004160182294
scalar tree_4_3_u02_r1_network.client[34] 	hdistance[34] 	2.6537610619469
scalar tree_4_3_u02_r1_network.client[34] 	downloads[34] 	11752
scalar tree_4_3_u02_r1_network.client[34] 	avg_time[34] 	0.004080834337
scalar tree_4_3_u02_r1_network.client[35] 	hdistance[35] 	2.7238683127572
scalar tree_4_3_u02_r1_network.client[35] 	downloads[35] 	12150
scalar tree_4_3_u02_r1_network.client[35] 	avg_time[35] 	0.004197857049
scalar tree_4_3_u02_r1_network.client[36] 	hdistance[36] 	2.7237302248126
scalar tree_4_3_u02_r1_network.client[36] 	downloads[36] 	12010
scalar tree_4_3_u02_r1_network.client[36] 	avg_time[36] 	0.004194834613
scalar tree_4_3_u02_r1_network.client[37] 	hdistance[37] 	2.7337547408344
scalar tree_4_3_u02_r1_network.client[37] 	downloads[37] 	11865
scalar tree_4_3_u02_r1_network.client[37] 	avg_time[37] 	0.00419148463
scalar tree_4_3_u02_r1_network.client[38] 	hdistance[38] 	2.7319184352892
scalar tree_4_3_u02_r1_network.client[38] 	downloads[38] 	12015
scalar tree_4_3_u02_r1_network.client[38] 	avg_time[38] 	0.004186097727
scalar tree_4_3_u02_r1_network.client[39] 	hdistance[39] 	2.7401224729469
scalar tree_4_3_u02_r1_network.client[39] 	downloads[39] 	11921
scalar tree_4_3_u02_r1_network.client[39] 	avg_time[39] 	0.004198134767
