version 2
run General-59-20160819-11:34:42-2054
attr a 0.9
attr cd lcd
attr configname General
attr cr lru
attr datetime 20160819-11:34:42
attr experiment General
attr fsize 1
attr inifile hw5115/scenario_A/NRR-LCD.ini
attr iterationvars "$name=tree_4_3, $un=02, $rep=20, $cd=lcd, $cr=lru, $fsize=1, $a=0.9, $sl=nrr, $ttl=1000, $variance=0.05"
attr iterationvars2 "$name=tree_4_3, $un=02, $rep=20, $cd=lcd, $cr=lru, $fsize=1, $a=0.9, $sl=nrr, $ttl=1000, $variance=0.05, $repetition=0"
attr measurement "$name=tree_4_3, $un=02, $rep=20, $cd=lcd, $cr=lru, $fsize=1, $a=0.9, $sl=nrr, $ttl=1000, $variance=0.05"
attr name tree_4_3
attr network networks.${name}_u${un}_r${rep}_network
attr processid 2054
attr rep 20
attr repetition 0
attr replication #0
attr resultdir results
attr runnumber 59
attr seedset 20
attr sl nrr
attr ttl 1000
attr un 02
attr variance 0.05

scalar . 	a 	0.9
scalar . 	fsize 	1
scalar . 	rep 	20
scalar . 	ttl 	1000
scalar . 	un 	02
scalar . 	variance 	0.05
scalar tree_4_3_u02_r20_network.content_distribution 	repo-0 	0
scalar tree_4_3_u02_r20_network.content_distribution 	client-0 	13
scalar tree_4_3_u02_r20_network.content_distribution 	client-1 	14
scalar tree_4_3_u02_r20_network.content_distribution 	client-2 	15
scalar tree_4_3_u02_r20_network.content_distribution 	client-3 	16
scalar tree_4_3_u02_r20_network.content_distribution 	client-4 	17
scalar tree_4_3_u02_r20_network.content_distribution 	client-5 	18
scalar tree_4_3_u02_r20_network.content_distribution 	client-6 	19
scalar tree_4_3_u02_r20_network.content_distribution 	client-7 	20
scalar tree_4_3_u02_r20_network.content_distribution 	client-8 	21
scalar tree_4_3_u02_r20_network.content_distribution 	client-9 	22
scalar tree_4_3_u02_r20_network.content_distribution 	client-10 	23
scalar tree_4_3_u02_r20_network.content_distribution 	client-11 	24
scalar tree_4_3_u02_r20_network.content_distribution 	client-12 	25
scalar tree_4_3_u02_r20_network.content_distribution 	client-13 	26
scalar tree_4_3_u02_r20_network.content_distribution 	client-14 	27
scalar tree_4_3_u02_r20_network.content_distribution 	client-15 	28
scalar tree_4_3_u02_r20_network.content_distribution 	client-16 	29
scalar tree_4_3_u02_r20_network.content_distribution 	client-17 	30
scalar tree_4_3_u02_r20_network.content_distribution 	client-18 	31
scalar tree_4_3_u02_r20_network.content_distribution 	client-19 	32
scalar tree_4_3_u02_r20_network.content_distribution 	client-20 	33
scalar tree_4_3_u02_r20_network.content_distribution 	client-21 	34
scalar tree_4_3_u02_r20_network.content_distribution 	client-22 	35
scalar tree_4_3_u02_r20_network.content_distribution 	client-23 	36
scalar tree_4_3_u02_r20_network.content_distribution 	client-24 	37
scalar tree_4_3_u02_r20_network.content_distribution 	client-25 	38
scalar tree_4_3_u02_r20_network.content_distribution 	client-26 	39
scalar tree_4_3_u02_r20_network.content_distribution 	repo-0_card 	100000
scalar tree_4_3_u02_r20_network.content_distribution 	repo-0_price 	0
scalar tree_4_3_u02_r20_network.statistics 	stabilization_time 	807.1
scalar tree_4_3_u02_r20_network.statistics 	p_hit 	0.20858383316995
scalar tree_4_3_u02_r20_network.statistics 	interests 	25115.825
scalar tree_4_3_u02_r20_network.statistics 	data 	16986.225
scalar tree_4_3_u02_r20_network.statistics 	hdistance 	2.7326261468542
scalar tree_4_3_u02_r20_network.statistics 	avg_time 	0.004178861587
scalar tree_4_3_u02_r20_network.statistics 	downloads 	325177
scalar tree_4_3_u02_r20_network.statistics 	total_cost 	0
scalar tree_4_3_u02_r20_network.statistics 	total_replicas 	100000
scalar tree_4_3_u02_r20_network.statistics 	inner_hit 	0.35687025835161
scalar tree_4_3_u02_r20_network.node[0].core_layer 	interests[0] 	210705
scalar tree_4_3_u02_r20_network.node[0].core_layer 	repo_load[0] 	209131
scalar tree_4_3_u02_r20_network.node[0].core_layer 	data[0] 	0
scalar tree_4_3_u02_r20_network.node[0].core_layer 	repo_int[0] 	209131
scalar tree_4_3_u02_r20_network.node[0].content_store 	p_hit[0] 	0.007470159701953
scalar tree_4_3_u02_r20_network.node[0].content_store 	hits[0] 	1574
scalar tree_4_3_u02_r20_network.node[0].content_store 	misses[0] 	209131
scalar tree_4_3_u02_r20_network.node[0].content_store 	decision_yes[0] 	209131
scalar tree_4_3_u02_r20_network.node[0].content_store 	decision_no[0] 	0
scalar tree_4_3_u02_r20_network.node[0].content_store 	decision_ratio[0] 	1
scalar tree_4_3_u02_r20_network.node[1].core_layer 	interests[1] 	72472
scalar tree_4_3_u02_r20_network.node[1].core_layer 	data[1] 	70935
scalar tree_4_3_u02_r20_network.node[1].content_store 	p_hit[1] 	0.021194392317033
scalar tree_4_3_u02_r20_network.node[1].content_store 	hits[1] 	1536
scalar tree_4_3_u02_r20_network.node[1].content_store 	misses[1] 	70936
scalar tree_4_3_u02_r20_network.node[1].content_store 	decision_yes[1] 	1404
scalar tree_4_3_u02_r20_network.node[1].content_store 	decision_no[1] 	69531
scalar tree_4_3_u02_r20_network.node[1].content_store 	decision_ratio[1] 	0.019792768027067
scalar tree_4_3_u02_r20_network.node[2].core_layer 	interests[2] 	73552
scalar tree_4_3_u02_r20_network.node[2].core_layer 	data[2] 	72254
scalar tree_4_3_u02_r20_network.node[2].content_store 	p_hit[2] 	0.017633782901893
scalar tree_4_3_u02_r20_network.node[2].content_store 	hits[2] 	1297
scalar tree_4_3_u02_r20_network.node[2].content_store 	misses[2] 	72255
scalar tree_4_3_u02_r20_network.node[2].content_store 	decision_yes[2] 	1221
scalar tree_4_3_u02_r20_network.node[2].content_store 	decision_no[2] 	71033
scalar tree_4_3_u02_r20_network.node[2].content_store 	decision_ratio[2] 	0.016898718410053
scalar tree_4_3_u02_r20_network.node[3].core_layer 	interests[3] 	73631
scalar tree_4_3_u02_r20_network.node[3].core_layer 	data[3] 	71532
scalar tree_4_3_u02_r20_network.node[3].content_store 	p_hit[3] 	0.028507014708479
scalar tree_4_3_u02_r20_network.node[3].content_store 	hits[3] 	2099
scalar tree_4_3_u02_r20_network.node[3].content_store 	misses[3] 	71532
scalar tree_4_3_u02_r20_network.node[3].content_store 	decision_yes[3] 	2078
scalar tree_4_3_u02_r20_network.node[3].content_store 	decision_no[3] 	69454
scalar tree_4_3_u02_r20_network.node[3].content_store 	decision_ratio[3] 	0.029049935693116
scalar tree_4_3_u02_r20_network.node[4].core_layer 	interests[4] 	35194
scalar tree_4_3_u02_r20_network.node[4].core_layer 	data[4] 	33458
scalar tree_4_3_u02_r20_network.node[4].content_store 	p_hit[4] 	0.049269761891231
scalar tree_4_3_u02_r20_network.node[4].content_store 	hits[4] 	1734
scalar tree_4_3_u02_r20_network.node[4].content_store 	misses[4] 	33460
scalar tree_4_3_u02_r20_network.node[4].content_store 	decision_yes[4] 	1829
scalar tree_4_3_u02_r20_network.node[4].content_store 	decision_no[4] 	31629
scalar tree_4_3_u02_r20_network.node[4].content_store 	decision_ratio[4] 	0.054665550839859
scalar tree_4_3_u02_r20_network.node[5].core_layer 	interests[5] 	18369
scalar tree_4_3_u02_r20_network.node[5].core_layer 	data[5] 	17133
scalar tree_4_3_u02_r20_network.node[5].content_store 	p_hit[5] 	0.067341717023246
scalar tree_4_3_u02_r20_network.node[5].content_store 	hits[5] 	1237
scalar tree_4_3_u02_r20_network.node[5].content_store 	misses[5] 	17132
scalar tree_4_3_u02_r20_network.node[5].content_store 	decision_yes[5] 	923
scalar tree_4_3_u02_r20_network.node[5].content_store 	decision_no[5] 	16210
scalar tree_4_3_u02_r20_network.node[5].content_store 	decision_ratio[5] 	0.053872643436643
scalar tree_4_3_u02_r20_network.node[6].core_layer 	interests[6] 	27881
scalar tree_4_3_u02_r20_network.node[6].core_layer 	data[6] 	25651
scalar tree_4_3_u02_r20_network.node[6].content_store 	p_hit[6] 	0.079946917255479
scalar tree_4_3_u02_r20_network.node[6].content_store 	hits[6] 	2229
scalar tree_4_3_u02_r20_network.node[6].content_store 	misses[6] 	25652
scalar tree_4_3_u02_r20_network.node[6].content_store 	decision_yes[6] 	2115
scalar tree_4_3_u02_r20_network.node[6].content_store 	decision_no[6] 	23536
scalar tree_4_3_u02_r20_network.node[6].content_store 	decision_ratio[6] 	0.082452925811859
scalar tree_4_3_u02_r20_network.node[7].core_layer 	interests[7] 	26129
scalar tree_4_3_u02_r20_network.node[7].core_layer 	data[7] 	24943
scalar tree_4_3_u02_r20_network.node[7].content_store 	p_hit[7] 	0.045351907841862
scalar tree_4_3_u02_r20_network.node[7].content_store 	hits[7] 	1185
scalar tree_4_3_u02_r20_network.node[7].content_store 	misses[7] 	24944
scalar tree_4_3_u02_r20_network.node[7].content_store 	decision_yes[7] 	829
scalar tree_4_3_u02_r20_network.node[7].content_store 	decision_no[7] 	24114
scalar tree_4_3_u02_r20_network.node[7].content_store 	decision_ratio[7] 	0.033235777572866
scalar tree_4_3_u02_r20_network.node[8].core_layer 	interests[8] 	26677
scalar tree_4_3_u02_r20_network.node[8].core_layer 	data[8] 	25374
scalar tree_4_3_u02_r20_network.node[8].content_store 	p_hit[8] 	0.048881058589796
scalar tree_4_3_u02_r20_network.node[8].content_store 	hits[8] 	1304
scalar tree_4_3_u02_r20_network.node[8].content_store 	misses[8] 	25373
scalar tree_4_3_u02_r20_network.node[8].content_store 	decision_yes[8] 	1099
scalar tree_4_3_u02_r20_network.node[8].content_store 	decision_no[8] 	24275
scalar tree_4_3_u02_r20_network.node[8].content_store 	decision_ratio[8] 	0.043312051706471
scalar tree_4_3_u02_r20_network.node[9].core_layer 	interests[9] 	26813
scalar tree_4_3_u02_r20_network.node[9].core_layer 	data[9] 	25158
scalar tree_4_3_u02_r20_network.node[9].content_store 	p_hit[9] 	0.061723790698542
scalar tree_4_3_u02_r20_network.node[9].content_store 	hits[9] 	1655
scalar tree_4_3_u02_r20_network.node[9].content_store 	misses[9] 	25158
scalar tree_4_3_u02_r20_network.node[9].content_store 	decision_yes[9] 	1292
scalar tree_4_3_u02_r20_network.node[9].content_store 	decision_no[9] 	23866
scalar tree_4_3_u02_r20_network.node[9].content_store 	decision_ratio[9] 	0.051355433659273
scalar tree_4_3_u02_r20_network.node[10].core_layer 	interests[10] 	35257
scalar tree_4_3_u02_r20_network.node[10].core_layer 	data[10] 	33362
scalar tree_4_3_u02_r20_network.node[10].content_store 	p_hit[10] 	0.053748191848427
scalar tree_4_3_u02_r20_network.node[10].content_store 	hits[10] 	1895
scalar tree_4_3_u02_r20_network.node[10].content_store 	misses[10] 	33362
scalar tree_4_3_u02_r20_network.node[10].content_store 	decision_yes[10] 	1765
scalar tree_4_3_u02_r20_network.node[10].content_store 	decision_no[10] 	31597
scalar tree_4_3_u02_r20_network.node[10].content_store 	decision_ratio[10] 	0.05290450212817
scalar tree_4_3_u02_r20_network.node[11].core_layer 	interests[11] 	26377
scalar tree_4_3_u02_r20_network.node[11].core_layer 	data[11] 	24904
scalar tree_4_3_u02_r20_network.node[11].content_store 	p_hit[11] 	0.05584410660803
scalar tree_4_3_u02_r20_network.node[11].content_store 	hits[11] 	1473
scalar tree_4_3_u02_r20_network.node[11].content_store 	misses[11] 	24904
scalar tree_4_3_u02_r20_network.node[11].content_store 	decision_yes[11] 	1173
scalar tree_4_3_u02_r20_network.node[11].content_store 	decision_no[11] 	23731
scalar tree_4_3_u02_r20_network.node[11].content_store 	decision_ratio[11] 	0.047100867330549
scalar tree_4_3_u02_r20_network.node[12].core_layer 	interests[12] 	18951
scalar tree_4_3_u02_r20_network.node[12].core_layer 	data[12] 	17114
scalar tree_4_3_u02_r20_network.node[12].content_store 	p_hit[12] 	0.096934198723023
scalar tree_4_3_u02_r20_network.node[12].content_store 	hits[12] 	1837
scalar tree_4_3_u02_r20_network.node[12].content_store 	misses[12] 	17114
scalar tree_4_3_u02_r20_network.node[12].content_store 	decision_yes[12] 	1348
scalar tree_4_3_u02_r20_network.node[12].content_store 	decision_no[12] 	15766
scalar tree_4_3_u02_r20_network.node[12].content_store 	decision_ratio[12] 	0.078765922636438
scalar tree_4_3_u02_r20_network.node[13].core_layer 	interests[13] 	12151
scalar tree_4_3_u02_r20_network.node[13].core_layer 	data[13] 	8588
scalar tree_4_3_u02_r20_network.node[13].content_store 	p_hit[13] 	0.29322689490577
scalar tree_4_3_u02_r20_network.node[13].content_store 	hits[13] 	3563
scalar tree_4_3_u02_r20_network.node[13].content_store 	misses[13] 	8588
scalar tree_4_3_u02_r20_network.node[13].content_store 	decision_yes[13] 	376
scalar tree_4_3_u02_r20_network.node[13].content_store 	decision_no[13] 	8212
scalar tree_4_3_u02_r20_network.node[13].content_store 	decision_ratio[13] 	0.043782021425245
scalar tree_4_3_u02_r20_network.node[14].core_layer 	interests[14] 	12504
scalar tree_4_3_u02_r20_network.node[14].core_layer 	data[14] 	8913
scalar tree_4_3_u02_r20_network.node[14].content_store 	p_hit[14] 	0.28710812539987
scalar tree_4_3_u02_r20_network.node[14].content_store 	hits[14] 	3590
scalar tree_4_3_u02_r20_network.node[14].content_store 	misses[14] 	8914
scalar tree_4_3_u02_r20_network.node[14].content_store 	decision_yes[14] 	410
scalar tree_4_3_u02_r20_network.node[14].content_store 	decision_no[14] 	8503
scalar tree_4_3_u02_r20_network.node[14].content_store 	decision_ratio[14] 	0.046000224391338
scalar tree_4_3_u02_r20_network.node[15].core_layer 	interests[15] 	12467
scalar tree_4_3_u02_r20_network.node[15].core_layer 	data[15] 	8971
scalar tree_4_3_u02_r20_network.node[15].content_store 	p_hit[15] 	0.28042030961739
scalar tree_4_3_u02_r20_network.node[15].content_store 	hits[15] 	3496
scalar tree_4_3_u02_r20_network.node[15].content_store 	misses[15] 	8971
scalar tree_4_3_u02_r20_network.node[15].content_store 	decision_yes[15] 	370
scalar tree_4_3_u02_r20_network.node[15].content_store 	decision_no[15] 	8601
scalar tree_4_3_u02_r20_network.node[15].content_store 	decision_ratio[15] 	0.041244008471742
scalar tree_4_3_u02_r20_network.node[16].core_layer 	interests[16] 	12441
scalar tree_4_3_u02_r20_network.node[16].core_layer 	data[16] 	8794
scalar tree_4_3_u02_r20_network.node[16].content_store 	p_hit[16] 	0.2930632585805
scalar tree_4_3_u02_r20_network.node[16].content_store 	hits[16] 	3646
scalar tree_4_3_u02_r20_network.node[16].content_store 	misses[16] 	8795
scalar tree_4_3_u02_r20_network.node[16].content_store 	decision_yes[16] 	665
scalar tree_4_3_u02_r20_network.node[16].content_store 	decision_no[16] 	8129
scalar tree_4_3_u02_r20_network.node[16].content_store 	decision_ratio[16] 	0.075619740732317
scalar tree_4_3_u02_r20_network.node[17].core_layer 	interests[17] 	12355
scalar tree_4_3_u02_r20_network.node[17].core_layer 	data[17] 	8880
scalar tree_4_3_u02_r20_network.node[17].content_store 	p_hit[17] 	0.28126264670174
scalar tree_4_3_u02_r20_network.node[17].content_store 	hits[17] 	3475
scalar tree_4_3_u02_r20_network.node[17].content_store 	misses[17] 	8880
scalar tree_4_3_u02_r20_network.node[17].content_store 	decision_yes[17] 	336
scalar tree_4_3_u02_r20_network.node[17].content_store 	decision_no[17] 	8544
scalar tree_4_3_u02_r20_network.node[17].content_store 	decision_ratio[17] 	0.037837837837838
scalar tree_4_3_u02_r20_network.node[18].core_layer 	interests[18] 	12169
scalar tree_4_3_u02_r20_network.node[18].core_layer 	data[18] 	8848
scalar tree_4_3_u02_r20_network.node[18].content_store 	p_hit[18] 	0.27290656586408
scalar tree_4_3_u02_r20_network.node[18].content_store 	hits[18] 	3321
scalar tree_4_3_u02_r20_network.node[18].content_store 	misses[18] 	8848
scalar tree_4_3_u02_r20_network.node[18].content_store 	decision_yes[18] 	379
scalar tree_4_3_u02_r20_network.node[18].content_store 	decision_no[18] 	8469
scalar tree_4_3_u02_r20_network.node[18].content_store 	decision_ratio[18] 	0.042834538878843
scalar tree_4_3_u02_r20_network.node[19].core_layer 	interests[19] 	12455
scalar tree_4_3_u02_r20_network.node[19].core_layer 	data[19] 	8974
scalar tree_4_3_u02_r20_network.node[19].content_store 	p_hit[19] 	0.27948615014051
scalar tree_4_3_u02_r20_network.node[19].content_store 	hits[19] 	3481
scalar tree_4_3_u02_r20_network.node[19].content_store 	misses[19] 	8974
scalar tree_4_3_u02_r20_network.node[19].content_store 	decision_yes[19] 	434
scalar tree_4_3_u02_r20_network.node[19].content_store 	decision_no[19] 	8540
scalar tree_4_3_u02_r20_network.node[19].content_store 	decision_ratio[19] 	0.048361934477379
scalar tree_4_3_u02_r20_network.node[20].core_layer 	interests[20] 	12480
scalar tree_4_3_u02_r20_network.node[20].core_layer 	data[20] 	8730
scalar tree_4_3_u02_r20_network.node[20].content_store 	p_hit[20] 	0.30048076923077
scalar tree_4_3_u02_r20_network.node[20].content_store 	hits[20] 	3750
scalar tree_4_3_u02_r20_network.node[20].content_store 	misses[20] 	8730
scalar tree_4_3_u02_r20_network.node[20].content_store 	decision_yes[20] 	404
scalar tree_4_3_u02_r20_network.node[20].content_store 	decision_no[20] 	8326
scalar tree_4_3_u02_r20_network.node[20].content_store 	decision_ratio[20] 	0.046277205040092
scalar tree_4_3_u02_r20_network.node[21].core_layer 	interests[21] 	12417
scalar tree_4_3_u02_r20_network.node[21].core_layer 	data[21] 	8849
scalar tree_4_3_u02_r20_network.node[21].content_store 	p_hit[21] 	0.28734799065797
scalar tree_4_3_u02_r20_network.node[21].content_store 	hits[21] 	3568
scalar tree_4_3_u02_r20_network.node[21].content_store 	misses[21] 	8849
scalar tree_4_3_u02_r20_network.node[21].content_store 	decision_yes[21] 	399
scalar tree_4_3_u02_r20_network.node[21].content_store 	decision_no[21] 	8450
scalar tree_4_3_u02_r20_network.node[21].content_store 	decision_ratio[21] 	0.045089840659962
scalar tree_4_3_u02_r20_network.node[22].core_layer 	interests[22] 	12215
scalar tree_4_3_u02_r20_network.node[22].core_layer 	data[22] 	8805
scalar tree_4_3_u02_r20_network.node[22].content_store 	p_hit[22] 	0.27916496111339
scalar tree_4_3_u02_r20_network.node[22].content_store 	hits[22] 	3410
scalar tree_4_3_u02_r20_network.node[22].content_store 	misses[22] 	8805
scalar tree_4_3_u02_r20_network.node[22].content_store 	decision_yes[22] 	355
scalar tree_4_3_u02_r20_network.node[22].content_store 	decision_no[22] 	8450
scalar tree_4_3_u02_r20_network.node[22].content_store 	decision_ratio[22] 	0.040318001135718
scalar tree_4_3_u02_r20_network.node[23].core_layer 	interests[23] 	12201
scalar tree_4_3_u02_r20_network.node[23].core_layer 	data[23] 	8806
scalar tree_4_3_u02_r20_network.node[23].content_store 	p_hit[23] 	0.27825588066552
scalar tree_4_3_u02_r20_network.node[23].content_store 	hits[23] 	3395
scalar tree_4_3_u02_r20_network.node[23].content_store 	misses[23] 	8806
scalar tree_4_3_u02_r20_network.node[23].content_store 	decision_yes[23] 	333
scalar tree_4_3_u02_r20_network.node[23].content_store 	decision_no[23] 	8473
scalar tree_4_3_u02_r20_network.node[23].content_store 	decision_ratio[23] 	0.03781512605042
scalar tree_4_3_u02_r20_network.node[24].core_layer 	interests[24] 	12350
scalar tree_4_3_u02_r20_network.node[24].core_layer 	data[24] 	8686
scalar tree_4_3_u02_r20_network.node[24].content_store 	p_hit[24] 	0.2965991902834
scalar tree_4_3_u02_r20_network.node[24].content_store 	hits[24] 	3663
scalar tree_4_3_u02_r20_network.node[24].content_store 	misses[24] 	8687
scalar tree_4_3_u02_r20_network.node[24].content_store 	decision_yes[24] 	587
scalar tree_4_3_u02_r20_network.node[24].content_store 	decision_no[24] 	8099
scalar tree_4_3_u02_r20_network.node[24].content_store 	decision_ratio[24] 	0.067580013815335
scalar tree_4_3_u02_r20_network.node[25].core_layer 	interests[25] 	12321
scalar tree_4_3_u02_r20_network.node[25].core_layer 	data[25] 	8820
scalar tree_4_3_u02_r20_network.node[25].content_store 	p_hit[25] 	0.28406785163542
scalar tree_4_3_u02_r20_network.node[25].content_store 	hits[25] 	3500
scalar tree_4_3_u02_r20_network.node[25].content_store 	misses[25] 	8821
scalar tree_4_3_u02_r20_network.node[25].content_store 	decision_yes[25] 	352
scalar tree_4_3_u02_r20_network.node[25].content_store 	decision_no[25] 	8468
scalar tree_4_3_u02_r20_network.node[25].content_store 	decision_ratio[25] 	0.039909297052154
scalar tree_4_3_u02_r20_network.node[26].core_layer 	interests[26] 	12097
scalar tree_4_3_u02_r20_network.node[26].core_layer 	data[26] 	8682
scalar tree_4_3_u02_r20_network.node[26].content_store 	p_hit[26] 	0.28238406216417
scalar tree_4_3_u02_r20_network.node[26].content_store 	hits[26] 	3416
scalar tree_4_3_u02_r20_network.node[26].content_store 	misses[26] 	8681
scalar tree_4_3_u02_r20_network.node[26].content_store 	decision_yes[26] 	370
scalar tree_4_3_u02_r20_network.node[26].content_store 	decision_no[26] 	8312
scalar tree_4_3_u02_r20_network.node[26].content_store 	decision_ratio[26] 	0.042616908546418
scalar tree_4_3_u02_r20_network.node[27].core_layer 	interests[27] 	12376
scalar tree_4_3_u02_r20_network.node[27].core_layer 	data[27] 	8901
scalar tree_4_3_u02_r20_network.node[27].content_store 	p_hit[27] 	0.28078539107951
scalar tree_4_3_u02_r20_network.node[27].content_store 	hits[27] 	3475
scalar tree_4_3_u02_r20_network.node[27].content_store 	misses[27] 	8901
scalar tree_4_3_u02_r20_network.node[27].content_store 	decision_yes[27] 	379
scalar tree_4_3_u02_r20_network.node[27].content_store 	decision_no[27] 	8522
scalar tree_4_3_u02_r20_network.node[27].content_store 	decision_ratio[27] 	0.042579485451073
scalar tree_4_3_u02_r20_network.node[28].core_layer 	interests[28] 	12111
scalar tree_4_3_u02_r20_network.node[28].core_layer 	data[28] 	8692
scalar tree_4_3_u02_r20_network.node[28].content_store 	p_hit[28] 	0.28230534225085
scalar tree_4_3_u02_r20_network.node[28].content_store 	hits[28] 	3419
scalar tree_4_3_u02_r20_network.node[28].content_store 	misses[28] 	8692
scalar tree_4_3_u02_r20_network.node[28].content_store 	decision_yes[28] 	360
scalar tree_4_3_u02_r20_network.node[28].content_store 	decision_no[28] 	8332
scalar tree_4_3_u02_r20_network.node[28].content_store 	decision_ratio[28] 	0.041417395306029
scalar tree_4_3_u02_r20_network.node[29].core_layer 	interests[29] 	12031
scalar tree_4_3_u02_r20_network.node[29].core_layer 	data[29] 	8600
scalar tree_4_3_u02_r20_network.node[29].content_store 	p_hit[29] 	0.28509683318095
scalar tree_4_3_u02_r20_network.node[29].content_store 	hits[29] 	3430
scalar tree_4_3_u02_r20_network.node[29].content_store 	misses[29] 	8601
scalar tree_4_3_u02_r20_network.node[29].content_store 	decision_yes[29] 	380
scalar tree_4_3_u02_r20_network.node[29].content_store 	decision_no[29] 	8220
scalar tree_4_3_u02_r20_network.node[29].content_store 	decision_ratio[29] 	0.044186046511628
scalar tree_4_3_u02_r20_network.node[30].core_layer 	interests[30] 	12125
scalar tree_4_3_u02_r20_network.node[30].core_layer 	data[30] 	8788
scalar tree_4_3_u02_r20_network.node[30].content_store 	p_hit[30] 	0.27521649484536
scalar tree_4_3_u02_r20_network.node[30].content_store 	hits[30] 	3337
scalar tree_4_3_u02_r20_network.node[30].content_store 	misses[30] 	8788
scalar tree_4_3_u02_r20_network.node[30].content_store 	decision_yes[30] 	369
scalar tree_4_3_u02_r20_network.node[30].content_store 	decision_no[30] 	8419
scalar tree_4_3_u02_r20_network.node[30].content_store 	decision_ratio[30] 	0.041989076012745
scalar tree_4_3_u02_r20_network.node[31].core_layer 	interests[31] 	12290
scalar tree_4_3_u02_r20_network.node[31].core_layer 	data[31] 	8819
scalar tree_4_3_u02_r20_network.node[31].content_store 	p_hit[31] 	0.28242473555736
scalar tree_4_3_u02_r20_network.node[31].content_store 	hits[31] 	3471
scalar tree_4_3_u02_r20_network.node[31].content_store 	misses[31] 	8819
scalar tree_4_3_u02_r20_network.node[31].content_store 	decision_yes[31] 	380
scalar tree_4_3_u02_r20_network.node[31].content_store 	decision_no[31] 	8439
scalar tree_4_3_u02_r20_network.node[31].content_store 	decision_ratio[31] 	0.043088785576596
scalar tree_4_3_u02_r20_network.node[32].core_layer 	interests[32] 	12591
scalar tree_4_3_u02_r20_network.node[32].core_layer 	data[32] 	9001
scalar tree_4_3_u02_r20_network.node[32].content_store 	p_hit[32] 	0.28504487332221
scalar tree_4_3_u02_r20_network.node[32].content_store 	hits[32] 	3589
scalar tree_4_3_u02_r20_network.node[32].content_store 	misses[32] 	9002
scalar tree_4_3_u02_r20_network.node[32].content_store 	decision_yes[32] 	418
scalar tree_4_3_u02_r20_network.node[32].content_store 	decision_no[32] 	8583
scalar tree_4_3_u02_r20_network.node[32].content_store 	decision_ratio[32] 	0.046439284523942
scalar tree_4_3_u02_r20_network.node[33].core_layer 	interests[33] 	12252
scalar tree_4_3_u02_r20_network.node[33].core_layer 	data[33] 	8663
scalar tree_4_3_u02_r20_network.node[33].content_store 	p_hit[33] 	0.29285014691479
scalar tree_4_3_u02_r20_network.node[33].content_store 	hits[33] 	3588
scalar tree_4_3_u02_r20_network.node[33].content_store 	misses[33] 	8664
scalar tree_4_3_u02_r20_network.node[33].content_store 	decision_yes[33] 	414
scalar tree_4_3_u02_r20_network.node[33].content_store 	decision_no[33] 	8249
scalar tree_4_3_u02_r20_network.node[33].content_store 	decision_ratio[33] 	0.047789449382431
scalar tree_4_3_u02_r20_network.node[34].core_layer 	interests[34] 	12316
scalar tree_4_3_u02_r20_network.node[34].core_layer 	data[34] 	8858
scalar tree_4_3_u02_r20_network.node[34].content_store 	p_hit[34] 	0.28077297823969
scalar tree_4_3_u02_r20_network.node[34].content_store 	hits[34] 	3458
scalar tree_4_3_u02_r20_network.node[34].content_store 	misses[34] 	8858
scalar tree_4_3_u02_r20_network.node[34].content_store 	decision_yes[34] 	383
scalar tree_4_3_u02_r20_network.node[34].content_store 	decision_no[34] 	8475
scalar tree_4_3_u02_r20_network.node[34].content_store 	decision_ratio[34] 	0.043237751185369
scalar tree_4_3_u02_r20_network.node[35].core_layer 	interests[35] 	12269
scalar tree_4_3_u02_r20_network.node[35].core_layer 	data[35] 	8767
scalar tree_4_3_u02_r20_network.node[35].content_store 	p_hit[35] 	0.28543483576494
scalar tree_4_3_u02_r20_network.node[35].content_store 	hits[35] 	3502
scalar tree_4_3_u02_r20_network.node[35].content_store 	misses[35] 	8767
scalar tree_4_3_u02_r20_network.node[35].content_store 	decision_yes[35] 	385
scalar tree_4_3_u02_r20_network.node[35].content_store 	decision_no[35] 	8382
scalar tree_4_3_u02_r20_network.node[35].content_store 	decision_ratio[35] 	0.043914680050188
scalar tree_4_3_u02_r20_network.node[36].core_layer 	interests[36] 	12472
scalar tree_4_3_u02_r20_network.node[36].core_layer 	data[36] 	8834
scalar tree_4_3_u02_r20_network.node[36].content_store 	p_hit[36] 	0.29161321359846
scalar tree_4_3_u02_r20_network.node[36].content_store 	hits[36] 	3637
scalar tree_4_3_u02_r20_network.node[36].content_store 	misses[36] 	8835
scalar tree_4_3_u02_r20_network.node[36].content_store 	decision_yes[36] 	698
scalar tree_4_3_u02_r20_network.node[36].content_store 	decision_no[36] 	8136
scalar tree_4_3_u02_r20_network.node[36].content_store 	decision_ratio[36] 	0.079012904686439
scalar tree_4_3_u02_r20_network.node[37].core_layer 	interests[37] 	12506
scalar tree_4_3_u02_r20_network.node[37].core_layer 	data[37] 	8777
scalar tree_4_3_u02_r20_network.node[37].content_store 	p_hit[37] 	0.29817687509995
scalar tree_4_3_u02_r20_network.node[37].content_store 	hits[37] 	3729
scalar tree_4_3_u02_r20_network.node[37].content_store 	misses[37] 	8777
scalar tree_4_3_u02_r20_network.node[37].content_store 	decision_yes[37] 	664
scalar tree_4_3_u02_r20_network.node[37].content_store 	decision_no[37] 	8113
scalar tree_4_3_u02_r20_network.node[37].content_store 	decision_ratio[37] 	0.075652272986214
scalar tree_4_3_u02_r20_network.node[38].core_layer 	interests[38] 	12430
scalar tree_4_3_u02_r20_network.node[38].core_layer 	data[38] 	8888
scalar tree_4_3_u02_r20_network.node[38].content_store 	p_hit[38] 	0.28495575221239
scalar tree_4_3_u02_r20_network.node[38].content_store 	hits[38] 	3542
scalar tree_4_3_u02_r20_network.node[38].content_store 	misses[38] 	8888
scalar tree_4_3_u02_r20_network.node[38].content_store 	decision_yes[38] 	419
scalar tree_4_3_u02_r20_network.node[38].content_store 	decision_no[38] 	8469
scalar tree_4_3_u02_r20_network.node[38].content_store 	decision_ratio[38] 	0.047142214221422
scalar tree_4_3_u02_r20_network.node[39].core_layer 	interests[39] 	12233
scalar tree_4_3_u02_r20_network.node[39].core_layer 	data[39] 	8697
scalar tree_4_3_u02_r20_network.node[39].content_store 	p_hit[39] 	0.28905419766206
scalar tree_4_3_u02_r20_network.node[39].content_store 	hits[39] 	3536
scalar tree_4_3_u02_r20_network.node[39].content_store 	misses[39] 	8697
scalar tree_4_3_u02_r20_network.node[39].content_store 	decision_yes[39] 	401
scalar tree_4_3_u02_r20_network.node[39].content_store 	decision_no[39] 	8296
scalar tree_4_3_u02_r20_network.node[39].content_store 	decision_ratio[39] 	0.046107853282741
scalar tree_4_3_u02_r20_network.client[13] 	hdistance[13] 	2.7117656988521
scalar tree_4_3_u02_r20_network.client[13] 	downloads[13] 	11848
scalar tree_4_3_u02_r20_network.client[13] 	avg_time[13] 	0.004149406283
scalar tree_4_3_u02_r20_network.client[14] 	hdistance[14] 	2.7250940618354
scalar tree_4_3_u02_r20_network.client[14] 	downloads[14] 	12226
scalar tree_4_3_u02_r20_network.client[14] 	avg_time[14] 	0.004170453383
scalar tree_4_3_u02_r20_network.client[15] 	hdistance[15] 	2.7600197109067
scalar tree_4_3_u02_r20_network.client[15] 	downloads[15] 	12176
scalar tree_4_3_u02_r20_network.client[15] 	avg_time[15] 	0.004225194079
scalar tree_4_3_u02_r20_network.client[16] 	hdistance[16] 	2.7122586062133
scalar tree_4_3_u02_r20_network.client[16] 	downloads[16] 	11910
scalar tree_4_3_u02_r20_network.client[16] 	avg_time[16] 	0.00414508299
scalar tree_4_3_u02_r20_network.client[17] 	hdistance[17] 	2.7482775590551
scalar tree_4_3_u02_r20_network.client[17] 	downloads[17] 	12192
scalar tree_4_3_u02_r20_network.client[17] 	avg_time[17] 	0.004204137955
scalar tree_4_3_u02_r20_network.client[18] 	hdistance[18] 	2.7627400448915
scalar tree_4_3_u02_r20_network.client[18] 	downloads[18] 	12029
scalar tree_4_3_u02_r20_network.client[18] 	avg_time[18] 	0.004231378881
scalar tree_4_3_u02_r20_network.client[19] 	hdistance[19] 	2.749213185357
scalar tree_4_3_u02_r20_network.client[19] 	downloads[19] 	12074
scalar tree_4_3_u02_r20_network.client[19] 	avg_time[19] 	0.004225274433
scalar tree_4_3_u02_r20_network.client[20] 	hdistance[20] 	2.6688692491947
scalar tree_4_3_u02_r20_network.client[20] 	downloads[20] 	12107
scalar tree_4_3_u02_r20_network.client[20] 	avg_time[20] 	0.004104069018
scalar tree_4_3_u02_r20_network.client[21] 	hdistance[21] 	2.7087957594832
scalar tree_4_3_u02_r20_network.client[21] 	downloads[21] 	12074
scalar tree_4_3_u02_r20_network.client[21] 	avg_time[21] 	0.004170576142
scalar tree_4_3_u02_r20_network.client[22] 	hdistance[22] 	2.7604666556346
scalar tree_4_3_u02_r20_network.client[22] 	downloads[22] 	12086
scalar tree_4_3_u02_r20_network.client[22] 	avg_time[22] 	0.004204034712
scalar tree_4_3_u02_r20_network.client[23] 	hdistance[23] 	2.7703722125508
scalar tree_4_3_u02_r20_network.client[23] 	downloads[23] 	12063
scalar tree_4_3_u02_r20_network.client[23] 	avg_time[23] 	0.004217687453
scalar tree_4_3_u02_r20_network.client[24] 	hdistance[24] 	2.7220216606498
scalar tree_4_3_u02_r20_network.client[24] 	downloads[24] 	11911
scalar tree_4_3_u02_r20_network.client[24] 	avg_time[24] 	0.004138692334
scalar tree_4_3_u02_r20_network.client[25] 	hdistance[25] 	2.7546032532408
scalar tree_4_3_u02_r20_network.client[25] 	downloads[25] 	12111
scalar tree_4_3_u02_r20_network.client[25] 	avg_time[25] 	0.004200310743
scalar tree_4_3_u02_r20_network.client[26] 	hdistance[26] 	2.7578690456152
scalar tree_4_3_u02_r20_network.client[26] 	downloads[26] 	11882
scalar tree_4_3_u02_r20_network.client[26] 	avg_time[26] 	0.004203347894
scalar tree_4_3_u02_r20_network.client[27] 	hdistance[27] 	2.7606500861857
scalar tree_4_3_u02_r20_network.client[27] 	downloads[27] 	12183
scalar tree_4_3_u02_r20_network.client[27] 	avg_time[27] 	0.00420848419
scalar tree_4_3_u02_r20_network.client[28] 	hdistance[28] 	2.7560811944305
scalar tree_4_3_u02_r20_network.client[28] 	downloads[28] 	11922
scalar tree_4_3_u02_r20_network.client[28] 	avg_time[28] 	0.004198453604
scalar tree_4_3_u02_r20_network.client[29] 	hdistance[29] 	2.7348837209302
scalar tree_4_3_u02_r20_network.client[29] 	downloads[29] 	11825
scalar tree_4_3_u02_r20_network.client[29] 	avg_time[29] 	0.004171362233
scalar tree_4_3_u02_r20_network.client[30] 	hdistance[30] 	2.7852168806108
scalar tree_4_3_u02_r20_network.client[30] 	downloads[30] 	11919
scalar tree_4_3_u02_r20_network.client[30] 	avg_time[30] 	0.00424196362
scalar tree_4_3_u02_r20_network.client[31] 	hdistance[31] 	2.7435299991678
scalar tree_4_3_u02_r20_network.client[31] 	downloads[31] 	12017
scalar tree_4_3_u02_r20_network.client[31] 	avg_time[31] 	0.004203042665
scalar tree_4_3_u02_r20_network.client[32] 	hdistance[32] 	2.7188006482982
scalar tree_4_3_u02_r20_network.client[32] 	downloads[32] 	12340
scalar tree_4_3_u02_r20_network.client[32] 	avg_time[32] 	0.004169776753
scalar tree_4_3_u02_r20_network.client[33] 	hdistance[33] 	2.6944513975803
scalar tree_4_3_u02_r20_network.client[33] 	downloads[33] 	11985
scalar tree_4_3_u02_r20_network.client[33] 	avg_time[33] 	0.004129192014
scalar tree_4_3_u02_r20_network.client[34] 	hdistance[34] 	2.7355515191546
scalar tree_4_3_u02_r20_network.client[34] 	downloads[34] 	12112
scalar tree_4_3_u02_r20_network.client[34] 	avg_time[34] 	0.004193689174
scalar tree_4_3_u02_r20_network.client[35] 	hdistance[35] 	2.7160238371131
scalar tree_4_3_u02_r20_network.client[35] 	downloads[35] 	12082
scalar tree_4_3_u02_r20_network.client[35] 	avg_time[35] 	0.004160731969
scalar tree_4_3_u02_r20_network.client[36] 	hdistance[36] 	2.7125868855205
scalar tree_4_3_u02_r20_network.client[36] 	downloads[36] 	11941
scalar tree_4_3_u02_r20_network.client[36] 	avg_time[36] 	0.004146401478
scalar tree_4_3_u02_r20_network.client[37] 	hdistance[37] 	2.7040328666052
scalar tree_4_3_u02_r20_network.client[37] 	downloads[37] 	11927
scalar tree_4_3_u02_r20_network.client[37] 	avg_time[37] 	0.00413062501
scalar tree_4_3_u02_r20_network.client[38] 	hdistance[38] 	2.7081696136215
scalar tree_4_3_u02_r20_network.client[38] 	downloads[38] 	12216
scalar tree_4_3_u02_r20_network.client[38] 	avg_time[38] 	0.004151110251
scalar tree_4_3_u02_r20_network.client[39] 	hdistance[39] 	2.6985606123638
scalar tree_4_3_u02_r20_network.client[39] 	downloads[39] 	12019
scalar tree_4_3_u02_r20_network.client[39] 	avg_time[39] 	0.004134783594
