version 2
run General-41-20160819-11:14:50-2054
attr a 0.9
attr cd lcd
attr configname General
attr cr lru
attr datetime 20160819-11:14:50
attr experiment General
attr fsize 1
attr inifile hw5115/scenario_A/NRR-LCD.ini
attr iterationvars "$name=tree_4_3, $un=02, $rep=2, $cd=lcd, $cr=lru, $fsize=1, $a=0.9, $sl=nrr, $ttl=1000, $variance=0.05"
attr iterationvars2 "$name=tree_4_3, $un=02, $rep=2, $cd=lcd, $cr=lru, $fsize=1, $a=0.9, $sl=nrr, $ttl=1000, $variance=0.05, $repetition=0"
attr measurement "$name=tree_4_3, $un=02, $rep=2, $cd=lcd, $cr=lru, $fsize=1, $a=0.9, $sl=nrr, $ttl=1000, $variance=0.05"
attr name tree_4_3
attr network networks.${name}_u${un}_r${rep}_network
attr processid 2054
attr rep 2
attr repetition 0
attr replication #0
attr resultdir results
attr runnumber 41
attr seedset 2
attr sl nrr
attr ttl 1000
attr un 02
attr variance 0.05

scalar . 	a 	0.9
scalar . 	fsize 	1
scalar . 	rep 	2
scalar . 	ttl 	1000
scalar . 	un 	02
scalar . 	variance 	0.05
scalar tree_4_3_u02_r2_network.content_distribution 	repo-0 	0
scalar tree_4_3_u02_r2_network.content_distribution 	client-0 	13
scalar tree_4_3_u02_r2_network.content_distribution 	client-1 	14
scalar tree_4_3_u02_r2_network.content_distribution 	client-2 	15
scalar tree_4_3_u02_r2_network.content_distribution 	client-3 	16
scalar tree_4_3_u02_r2_network.content_distribution 	client-4 	17
scalar tree_4_3_u02_r2_network.content_distribution 	client-5 	18
scalar tree_4_3_u02_r2_network.content_distribution 	client-6 	19
scalar tree_4_3_u02_r2_network.content_distribution 	client-7 	20
scalar tree_4_3_u02_r2_network.content_distribution 	client-8 	21
scalar tree_4_3_u02_r2_network.content_distribution 	client-9 	22
scalar tree_4_3_u02_r2_network.content_distribution 	client-10 	23
scalar tree_4_3_u02_r2_network.content_distribution 	client-11 	24
scalar tree_4_3_u02_r2_network.content_distribution 	client-12 	25
scalar tree_4_3_u02_r2_network.content_distribution 	client-13 	26
scalar tree_4_3_u02_r2_network.content_distribution 	client-14 	27
scalar tree_4_3_u02_r2_network.content_distribution 	client-15 	28
scalar tree_4_3_u02_r2_network.content_distribution 	client-16 	29
scalar tree_4_3_u02_r2_network.content_distribution 	client-17 	30
scalar tree_4_3_u02_r2_network.content_distribution 	client-18 	31
scalar tree_4_3_u02_r2_network.content_distribution 	client-19 	32
scalar tree_4_3_u02_r2_network.content_distribution 	client-20 	33
scalar tree_4_3_u02_r2_network.content_distribution 	client-21 	34
scalar tree_4_3_u02_r2_network.content_distribution 	client-22 	35
scalar tree_4_3_u02_r2_network.content_distribution 	client-23 	36
scalar tree_4_3_u02_r2_network.content_distribution 	client-24 	37
scalar tree_4_3_u02_r2_network.content_distribution 	client-25 	38
scalar tree_4_3_u02_r2_network.content_distribution 	client-26 	39
scalar tree_4_3_u02_r2_network.content_distribution 	repo-0_card 	100000
scalar tree_4_3_u02_r2_network.content_distribution 	repo-0_price 	0
scalar tree_4_3_u02_r2_network.statistics 	stabilization_time 	820.9
scalar tree_4_3_u02_r2_network.statistics 	p_hit 	0.20648773801307
scalar tree_4_3_u02_r2_network.statistics 	interests 	24983.975
scalar tree_4_3_u02_r2_network.statistics 	data 	16897.725
scalar tree_4_3_u02_r2_network.statistics 	hdistance 	2.7407711098639
scalar tree_4_3_u02_r2_network.statistics 	avg_time 	0.004179395106
scalar tree_4_3_u02_r2_network.statistics 	downloads 	323445
scalar tree_4_3_u02_r2_network.statistics 	total_cost 	0
scalar tree_4_3_u02_r2_network.statistics 	total_replicas 	100000
scalar tree_4_3_u02_r2_network.statistics 	inner_hit 	0.34896813986922
scalar tree_4_3_u02_r2_network.node[0].core_layer 	interests[0] 	212169
scalar tree_4_3_u02_r2_network.node[0].core_layer 	repo_load[0] 	210573
scalar tree_4_3_u02_r2_network.node[0].core_layer 	data[0] 	0
scalar tree_4_3_u02_r2_network.node[0].core_layer 	repo_int[0] 	210573
scalar tree_4_3_u02_r2_network.node[0].content_store 	p_hit[0] 	0.0075223053320702
scalar tree_4_3_u02_r2_network.node[0].content_store 	hits[0] 	1596
scalar tree_4_3_u02_r2_network.node[0].content_store 	misses[0] 	210573
scalar tree_4_3_u02_r2_network.node[0].content_store 	decision_yes[0] 	210573
scalar tree_4_3_u02_r2_network.node[0].content_store 	decision_no[0] 	0
scalar tree_4_3_u02_r2_network.node[0].content_store 	decision_ratio[0] 	1
scalar tree_4_3_u02_r2_network.node[1].core_layer 	interests[1] 	73154
scalar tree_4_3_u02_r2_network.node[1].core_layer 	data[1] 	71721
scalar tree_4_3_u02_r2_network.node[1].content_store 	p_hit[1] 	0.019575142849332
scalar tree_4_3_u02_r2_network.node[1].content_store 	hits[1] 	1432
scalar tree_4_3_u02_r2_network.node[1].content_store 	misses[1] 	71722
scalar tree_4_3_u02_r2_network.node[1].content_store 	decision_yes[1] 	1163
scalar tree_4_3_u02_r2_network.node[1].content_store 	decision_no[1] 	70558
scalar tree_4_3_u02_r2_network.node[1].content_store 	decision_ratio[1] 	0.016215613279235
scalar tree_4_3_u02_r2_network.node[2].core_layer 	interests[2] 	73381
scalar tree_4_3_u02_r2_network.node[2].core_layer 	data[2] 	71944
scalar tree_4_3_u02_r2_network.node[2].content_store 	p_hit[2] 	0.019569098267944
scalar tree_4_3_u02_r2_network.node[2].content_store 	hits[2] 	1436
scalar tree_4_3_u02_r2_network.node[2].content_store 	misses[2] 	71945
scalar tree_4_3_u02_r2_network.node[2].content_store 	decision_yes[2] 	1251
scalar tree_4_3_u02_r2_network.node[2].content_store 	decision_no[2] 	70693
scalar tree_4_3_u02_r2_network.node[2].content_store 	decision_ratio[2] 	0.017388524407873
scalar tree_4_3_u02_r2_network.node[3].core_layer 	interests[3] 	72230
scalar tree_4_3_u02_r2_network.node[3].core_layer 	data[3] 	70996
scalar tree_4_3_u02_r2_network.node[3].content_store 	p_hit[3] 	0.017070469334072
scalar tree_4_3_u02_r2_network.node[3].content_store 	hits[3] 	1233
scalar tree_4_3_u02_r2_network.node[3].content_store 	misses[3] 	70997
scalar tree_4_3_u02_r2_network.node[3].content_store 	decision_yes[3] 	1081
scalar tree_4_3_u02_r2_network.node[3].content_store 	decision_no[3] 	69915
scalar tree_4_3_u02_r2_network.node[3].content_store 	decision_ratio[3] 	0.01522620992732
scalar tree_4_3_u02_r2_network.node[4].core_layer 	interests[4] 	26019
scalar tree_4_3_u02_r2_network.node[4].core_layer 	data[4] 	24811
scalar tree_4_3_u02_r2_network.node[4].content_store 	p_hit[4] 	0.046389177139782
scalar tree_4_3_u02_r2_network.node[4].content_store 	hits[4] 	1207
scalar tree_4_3_u02_r2_network.node[4].content_store 	misses[4] 	24812
scalar tree_4_3_u02_r2_network.node[4].content_store 	decision_yes[4] 	958
scalar tree_4_3_u02_r2_network.node[4].content_store 	decision_no[4] 	23853
scalar tree_4_3_u02_r2_network.node[4].content_store 	decision_ratio[4] 	0.038611906009431
scalar tree_4_3_u02_r2_network.node[5].core_layer 	interests[5] 	26917
scalar tree_4_3_u02_r2_network.node[5].core_layer 	data[5] 	25217
scalar tree_4_3_u02_r2_network.node[5].content_store 	p_hit[5] 	0.063119961362708
scalar tree_4_3_u02_r2_network.node[5].content_store 	hits[5] 	1699
scalar tree_4_3_u02_r2_network.node[5].content_store 	misses[5] 	25218
scalar tree_4_3_u02_r2_network.node[5].content_store 	decision_yes[5] 	1368
scalar tree_4_3_u02_r2_network.node[5].content_store 	decision_no[5] 	23849
scalar tree_4_3_u02_r2_network.node[5].content_store 	decision_ratio[5] 	0.054249117658722
scalar tree_4_3_u02_r2_network.node[6].core_layer 	interests[6] 	26486
scalar tree_4_3_u02_r2_network.node[6].core_layer 	data[6] 	25160
scalar tree_4_3_u02_r2_network.node[6].content_store 	p_hit[6] 	0.050064184852375
scalar tree_4_3_u02_r2_network.node[6].content_store 	hits[6] 	1326
scalar tree_4_3_u02_r2_network.node[6].content_store 	misses[6] 	25160
scalar tree_4_3_u02_r2_network.node[6].content_store 	decision_yes[6] 	1141
scalar tree_4_3_u02_r2_network.node[6].content_store 	decision_no[6] 	24019
scalar tree_4_3_u02_r2_network.node[6].content_store 	decision_ratio[6] 	0.045349761526232
scalar tree_4_3_u02_r2_network.node[7].core_layer 	interests[7] 	26614
scalar tree_4_3_u02_r2_network.node[7].core_layer 	data[7] 	25231
scalar tree_4_3_u02_r2_network.node[7].content_store 	p_hit[7] 	0.051927556924927
scalar tree_4_3_u02_r2_network.node[7].content_store 	hits[7] 	1382
scalar tree_4_3_u02_r2_network.node[7].content_store 	misses[7] 	25232
scalar tree_4_3_u02_r2_network.node[7].content_store 	decision_yes[7] 	1118
scalar tree_4_3_u02_r2_network.node[7].content_store 	decision_no[7] 	24113
scalar tree_4_3_u02_r2_network.node[7].content_store 	decision_ratio[7] 	0.044310570330149
scalar tree_4_3_u02_r2_network.node[8].core_layer 	interests[8] 	26116
scalar tree_4_3_u02_r2_network.node[8].core_layer 	data[8] 	24853
scalar tree_4_3_u02_r2_network.node[8].content_store 	p_hit[8] 	0.048361157910859
scalar tree_4_3_u02_r2_network.node[8].content_store 	hits[8] 	1263
scalar tree_4_3_u02_r2_network.node[8].content_store 	misses[8] 	24853
scalar tree_4_3_u02_r2_network.node[8].content_store 	decision_yes[8] 	967
scalar tree_4_3_u02_r2_network.node[8].content_store 	decision_no[8] 	23886
scalar tree_4_3_u02_r2_network.node[8].content_store 	decision_ratio[8] 	0.038908783647849
scalar tree_4_3_u02_r2_network.node[9].core_layer 	interests[9] 	27045
scalar tree_4_3_u02_r2_network.node[9].core_layer 	data[9] 	25374
scalar tree_4_3_u02_r2_network.node[9].content_store 	p_hit[9] 	0.061785912368275
scalar tree_4_3_u02_r2_network.node[9].content_store 	hits[9] 	1671
scalar tree_4_3_u02_r2_network.node[9].content_store 	misses[9] 	25374
scalar tree_4_3_u02_r2_network.node[9].content_store 	decision_yes[9] 	1427
scalar tree_4_3_u02_r2_network.node[9].content_store 	decision_no[9] 	23947
scalar tree_4_3_u02_r2_network.node[9].content_store 	decision_ratio[9] 	0.056238669504217
scalar tree_4_3_u02_r2_network.node[10].core_layer 	interests[10] 	34349
scalar tree_4_3_u02_r2_network.node[10].core_layer 	data[10] 	32864
scalar tree_4_3_u02_r2_network.node[10].content_store 	p_hit[10] 	0.043232699641911
scalar tree_4_3_u02_r2_network.node[10].content_store 	hits[10] 	1485
scalar tree_4_3_u02_r2_network.node[10].content_store 	misses[10] 	32864
scalar tree_4_3_u02_r2_network.node[10].content_store 	decision_yes[10] 	1267
scalar tree_4_3_u02_r2_network.node[10].content_store 	decision_no[10] 	31597
scalar tree_4_3_u02_r2_network.node[10].content_store 	decision_ratio[10] 	0.03855282375852
scalar tree_4_3_u02_r2_network.node[11].core_layer 	interests[11] 	26948
scalar tree_4_3_u02_r2_network.node[11].core_layer 	data[11] 	25019
scalar tree_4_3_u02_r2_network.node[11].content_store 	p_hit[11] 	0.071582306664688
scalar tree_4_3_u02_r2_network.node[11].content_store 	hits[11] 	1929
scalar tree_4_3_u02_r2_network.node[11].content_store 	misses[11] 	25019
scalar tree_4_3_u02_r2_network.node[11].content_store 	decision_yes[11] 	1527
scalar tree_4_3_u02_r2_network.node[11].content_store 	decision_no[11] 	23492
scalar tree_4_3_u02_r2_network.node[11].content_store 	decision_ratio[11] 	0.061033614453016
scalar tree_4_3_u02_r2_network.node[12].core_layer 	interests[12] 	17929
scalar tree_4_3_u02_r2_network.node[12].core_layer 	data[12] 	16789
scalar tree_4_3_u02_r2_network.node[12].content_store 	p_hit[12] 	0.063528361871828
scalar tree_4_3_u02_r2_network.node[12].content_store 	hits[12] 	1139
scalar tree_4_3_u02_r2_network.node[12].content_store 	misses[12] 	16790
scalar tree_4_3_u02_r2_network.node[12].content_store 	decision_yes[12] 	881
scalar tree_4_3_u02_r2_network.node[12].content_store 	decision_no[12] 	15908
scalar tree_4_3_u02_r2_network.node[12].content_store 	decision_ratio[12] 	0.052474834713205
scalar tree_4_3_u02_r2_network.node[13].core_layer 	interests[13] 	12119
scalar tree_4_3_u02_r2_network.node[13].core_layer 	data[13] 	8670
scalar tree_4_3_u02_r2_network.node[13].content_store 	p_hit[13] 	0.28459443848502
scalar tree_4_3_u02_r2_network.node[13].content_store 	hits[13] 	3449
scalar tree_4_3_u02_r2_network.node[13].content_store 	misses[13] 	8670
scalar tree_4_3_u02_r2_network.node[13].content_store 	decision_yes[13] 	336
scalar tree_4_3_u02_r2_network.node[13].content_store 	decision_no[13] 	8334
scalar tree_4_3_u02_r2_network.node[13].content_store 	decision_ratio[13] 	0.038754325259516
scalar tree_4_3_u02_r2_network.node[14].core_layer 	interests[14] 	12352
scalar tree_4_3_u02_r2_network.node[14].core_layer 	data[14] 	8684
scalar tree_4_3_u02_r2_network.node[14].content_store 	p_hit[14] 	0.29695595854922
scalar tree_4_3_u02_r2_network.node[14].content_store 	hits[14] 	3668
scalar tree_4_3_u02_r2_network.node[14].content_store 	misses[14] 	8684
scalar tree_4_3_u02_r2_network.node[14].content_store 	decision_yes[14] 	609
scalar tree_4_3_u02_r2_network.node[14].content_store 	decision_no[14] 	8075
scalar tree_4_3_u02_r2_network.node[14].content_store 	decision_ratio[14] 	0.070128972823584
scalar tree_4_3_u02_r2_network.node[15].core_layer 	interests[15] 	12320
scalar tree_4_3_u02_r2_network.node[15].core_layer 	data[15] 	8848
scalar tree_4_3_u02_r2_network.node[15].content_store 	p_hit[15] 	0.28181818181818
scalar tree_4_3_u02_r2_network.node[15].content_store 	hits[15] 	3472
scalar tree_4_3_u02_r2_network.node[15].content_store 	misses[15] 	8848
scalar tree_4_3_u02_r2_network.node[15].content_store 	decision_yes[15] 	364
scalar tree_4_3_u02_r2_network.node[15].content_store 	decision_no[15] 	8484
scalar tree_4_3_u02_r2_network.node[15].content_store 	decision_ratio[15] 	0.041139240506329
scalar tree_4_3_u02_r2_network.node[16].core_layer 	interests[16] 	12122
scalar tree_4_3_u02_r2_network.node[16].core_layer 	data[16] 	8693
scalar tree_4_3_u02_r2_network.node[16].content_store 	p_hit[16] 	0.28287411318264
scalar tree_4_3_u02_r2_network.node[16].content_store 	hits[16] 	3429
scalar tree_4_3_u02_r2_network.node[16].content_store 	misses[16] 	8693
scalar tree_4_3_u02_r2_network.node[16].content_store 	decision_yes[16] 	378
scalar tree_4_3_u02_r2_network.node[16].content_store 	decision_no[16] 	8315
scalar tree_4_3_u02_r2_network.node[16].content_store 	decision_ratio[16] 	0.04348326239503
scalar tree_4_3_u02_r2_network.node[17].core_layer 	interests[17] 	12209
scalar tree_4_3_u02_r2_network.node[17].core_layer 	data[17] 	8758
scalar tree_4_3_u02_r2_network.node[17].content_store 	p_hit[17] 	0.28257842575149
scalar tree_4_3_u02_r2_network.node[17].content_store 	hits[17] 	3450
scalar tree_4_3_u02_r2_network.node[17].content_store 	misses[17] 	8759
scalar tree_4_3_u02_r2_network.node[17].content_store 	decision_yes[17] 	382
scalar tree_4_3_u02_r2_network.node[17].content_store 	decision_no[17] 	8376
scalar tree_4_3_u02_r2_network.node[17].content_store 	decision_ratio[17] 	0.043617264215574
scalar tree_4_3_u02_r2_network.node[18].core_layer 	interests[18] 	12237
scalar tree_4_3_u02_r2_network.node[18].core_layer 	data[18] 	8694
scalar tree_4_3_u02_r2_network.node[18].content_store 	p_hit[18] 	0.28945002860178
scalar tree_4_3_u02_r2_network.node[18].content_store 	hits[18] 	3542
scalar tree_4_3_u02_r2_network.node[18].content_store 	misses[18] 	8695
scalar tree_4_3_u02_r2_network.node[18].content_store 	decision_yes[18] 	379
scalar tree_4_3_u02_r2_network.node[18].content_store 	decision_no[18] 	8315
scalar tree_4_3_u02_r2_network.node[18].content_store 	decision_ratio[18] 	0.043593282723718
scalar tree_4_3_u02_r2_network.node[19].core_layer 	interests[19] 	12096
scalar tree_4_3_u02_r2_network.node[19].core_layer 	data[19] 	8652
scalar tree_4_3_u02_r2_network.node[19].content_store 	p_hit[19] 	0.28472222222222
scalar tree_4_3_u02_r2_network.node[19].content_store 	hits[19] 	3444
scalar tree_4_3_u02_r2_network.node[19].content_store 	misses[19] 	8652
scalar tree_4_3_u02_r2_network.node[19].content_store 	decision_yes[19] 	371
scalar tree_4_3_u02_r2_network.node[19].content_store 	decision_no[19] 	8281
scalar tree_4_3_u02_r2_network.node[19].content_store 	decision_ratio[19] 	0.042880258899676
scalar tree_4_3_u02_r2_network.node[20].core_layer 	interests[20] 	12264
scalar tree_4_3_u02_r2_network.node[20].core_layer 	data[20] 	8759
scalar tree_4_3_u02_r2_network.node[20].content_store 	p_hit[20] 	0.28579582517939
scalar tree_4_3_u02_r2_network.node[20].content_store 	hits[20] 	3505
scalar tree_4_3_u02_r2_network.node[20].content_store 	misses[20] 	8759
scalar tree_4_3_u02_r2_network.node[20].content_store 	decision_yes[20] 	379
scalar tree_4_3_u02_r2_network.node[20].content_store 	decision_no[20] 	8380
scalar tree_4_3_u02_r2_network.node[20].content_store 	decision_ratio[20] 	0.043269779655212
scalar tree_4_3_u02_r2_network.node[21].core_layer 	interests[21] 	12394
scalar tree_4_3_u02_r2_network.node[21].core_layer 	data[21] 	8799
scalar tree_4_3_u02_r2_network.node[21].content_store 	p_hit[21] 	0.29014039051154
scalar tree_4_3_u02_r2_network.node[21].content_store 	hits[21] 	3596
scalar tree_4_3_u02_r2_network.node[21].content_store 	misses[21] 	8798
scalar tree_4_3_u02_r2_network.node[21].content_store 	decision_yes[21] 	378
scalar tree_4_3_u02_r2_network.node[21].content_store 	decision_no[21] 	8421
scalar tree_4_3_u02_r2_network.node[21].content_store 	decision_ratio[21] 	0.042959427207637
scalar tree_4_3_u02_r2_network.node[22].core_layer 	interests[22] 	12307
scalar tree_4_3_u02_r2_network.node[22].core_layer 	data[22] 	8856
scalar tree_4_3_u02_r2_network.node[22].content_store 	p_hit[22] 	0.2803282684651
scalar tree_4_3_u02_r2_network.node[22].content_store 	hits[22] 	3450
scalar tree_4_3_u02_r2_network.node[22].content_store 	misses[22] 	8857
scalar tree_4_3_u02_r2_network.node[22].content_store 	decision_yes[22] 	380
scalar tree_4_3_u02_r2_network.node[22].content_store 	decision_no[22] 	8476
scalar tree_4_3_u02_r2_network.node[22].content_store 	decision_ratio[22] 	0.042908762420958
scalar tree_4_3_u02_r2_network.node[23].core_layer 	interests[23] 	12219
scalar tree_4_3_u02_r2_network.node[23].core_layer 	data[23] 	8816
scalar tree_4_3_u02_r2_network.node[23].content_store 	p_hit[23] 	0.27841885588019
scalar tree_4_3_u02_r2_network.node[23].content_store 	hits[23] 	3402
scalar tree_4_3_u02_r2_network.node[23].content_store 	misses[23] 	8817
scalar tree_4_3_u02_r2_network.node[23].content_store 	decision_yes[23] 	399
scalar tree_4_3_u02_r2_network.node[23].content_store 	decision_no[23] 	8417
scalar tree_4_3_u02_r2_network.node[23].content_store 	decision_ratio[23] 	0.045258620689655
scalar tree_4_3_u02_r2_network.node[24].core_layer 	interests[24] 	12093
scalar tree_4_3_u02_r2_network.node[24].core_layer 	data[24] 	8627
scalar tree_4_3_u02_r2_network.node[24].content_store 	p_hit[24] 	0.28661208963863
scalar tree_4_3_u02_r2_network.node[24].content_store 	hits[24] 	3466
scalar tree_4_3_u02_r2_network.node[24].content_store 	misses[24] 	8627
scalar tree_4_3_u02_r2_network.node[24].content_store 	decision_yes[24] 	366
scalar tree_4_3_u02_r2_network.node[24].content_store 	decision_no[24] 	8261
scalar tree_4_3_u02_r2_network.node[24].content_store 	decision_ratio[24] 	0.042424944940304
scalar tree_4_3_u02_r2_network.node[25].core_layer 	interests[25] 	12035
scalar tree_4_3_u02_r2_network.node[25].core_layer 	data[25] 	8648
scalar tree_4_3_u02_r2_network.node[25].content_store 	p_hit[25] 	0.28134607395098
scalar tree_4_3_u02_r2_network.node[25].content_store 	hits[25] 	3386
scalar tree_4_3_u02_r2_network.node[25].content_store 	misses[25] 	8649
scalar tree_4_3_u02_r2_network.node[25].content_store 	decision_yes[25] 	357
scalar tree_4_3_u02_r2_network.node[25].content_store 	decision_no[25] 	8291
scalar tree_4_3_u02_r2_network.node[25].content_store 	decision_ratio[25] 	0.041281221091582
scalar tree_4_3_u02_r2_network.node[26].core_layer 	interests[26] 	12045
scalar tree_4_3_u02_r2_network.node[26].core_layer 	data[26] 	8759
scalar tree_4_3_u02_r2_network.node[26].content_store 	p_hit[26] 	0.27272727272727
scalar tree_4_3_u02_r2_network.node[26].content_store 	hits[26] 	3285
scalar tree_4_3_u02_r2_network.node[26].content_store 	misses[26] 	8760
scalar tree_4_3_u02_r2_network.node[26].content_store 	decision_yes[26] 	364
scalar tree_4_3_u02_r2_network.node[26].content_store 	decision_no[26] 	8395
scalar tree_4_3_u02_r2_network.node[26].content_store 	decision_ratio[26] 	0.041557255394451
scalar tree_4_3_u02_r2_network.node[27].core_layer 	interests[27] 	12542
scalar tree_4_3_u02_r2_network.node[27].core_layer 	data[27] 	8871
scalar tree_4_3_u02_r2_network.node[27].content_store 	p_hit[27] 	0.292776271727
scalar tree_4_3_u02_r2_network.node[27].content_store 	hits[27] 	3672
scalar tree_4_3_u02_r2_network.node[27].content_store 	misses[27] 	8870
scalar tree_4_3_u02_r2_network.node[27].content_store 	decision_yes[27] 	639
scalar tree_4_3_u02_r2_network.node[27].content_store 	decision_no[27] 	8232
scalar tree_4_3_u02_r2_network.node[27].content_store 	decision_ratio[27] 	0.07203246533649
scalar tree_4_3_u02_r2_network.node[28].core_layer 	interests[28] 	12293
scalar tree_4_3_u02_r2_network.node[28].core_layer 	data[28] 	8784
scalar tree_4_3_u02_r2_network.node[28].content_store 	p_hit[28] 	0.28544700235907
scalar tree_4_3_u02_r2_network.node[28].content_store 	hits[28] 	3509
scalar tree_4_3_u02_r2_network.node[28].content_store 	misses[28] 	8784
scalar tree_4_3_u02_r2_network.node[28].content_store 	decision_yes[28] 	354
scalar tree_4_3_u02_r2_network.node[28].content_store 	decision_no[28] 	8430
scalar tree_4_3_u02_r2_network.node[28].content_store 	decision_ratio[28] 	0.040300546448087
scalar tree_4_3_u02_r2_network.node[29].core_layer 	interests[29] 	12121
scalar tree_4_3_u02_r2_network.node[29].core_layer 	data[29] 	8654
scalar tree_4_3_u02_r2_network.node[29].content_store 	p_hit[29] 	0.28603250556885
scalar tree_4_3_u02_r2_network.node[29].content_store 	hits[29] 	3467
scalar tree_4_3_u02_r2_network.node[29].content_store 	misses[29] 	8654
scalar tree_4_3_u02_r2_network.node[29].content_store 	decision_yes[29] 	355
scalar tree_4_3_u02_r2_network.node[29].content_store 	decision_no[29] 	8299
scalar tree_4_3_u02_r2_network.node[29].content_store 	decision_ratio[29] 	0.041021492951236
scalar tree_4_3_u02_r2_network.node[30].core_layer 	interests[30] 	12314
scalar tree_4_3_u02_r2_network.node[30].core_layer 	data[30] 	8827
scalar tree_4_3_u02_r2_network.node[30].content_store 	p_hit[30] 	0.28317362351795
scalar tree_4_3_u02_r2_network.node[30].content_store 	hits[30] 	3487
scalar tree_4_3_u02_r2_network.node[30].content_store 	misses[30] 	8827
scalar tree_4_3_u02_r2_network.node[30].content_store 	decision_yes[30] 	397
scalar tree_4_3_u02_r2_network.node[30].content_store 	decision_no[30] 	8430
scalar tree_4_3_u02_r2_network.node[30].content_store 	decision_ratio[30] 	0.044975642913787
scalar tree_4_3_u02_r2_network.node[31].core_layer 	interests[31] 	12293
scalar tree_4_3_u02_r2_network.node[31].core_layer 	data[31] 	8890
scalar tree_4_3_u02_r2_network.node[31].content_store 	p_hit[31] 	0.27682420889937
scalar tree_4_3_u02_r2_network.node[31].content_store 	hits[31] 	3403
scalar tree_4_3_u02_r2_network.node[31].content_store 	misses[31] 	8890
scalar tree_4_3_u02_r2_network.node[31].content_store 	decision_yes[31] 	368
scalar tree_4_3_u02_r2_network.node[31].content_store 	decision_no[31] 	8522
scalar tree_4_3_u02_r2_network.node[31].content_store 	decision_ratio[31] 	0.041394825646794
scalar tree_4_3_u02_r2_network.node[32].core_layer 	interests[32] 	12457
scalar tree_4_3_u02_r2_network.node[32].core_layer 	data[32] 	8854
scalar tree_4_3_u02_r2_network.node[32].content_store 	p_hit[32] 	0.28923496829092
scalar tree_4_3_u02_r2_network.node[32].content_store 	hits[32] 	3603
scalar tree_4_3_u02_r2_network.node[32].content_store 	misses[32] 	8854
scalar tree_4_3_u02_r2_network.node[32].content_store 	decision_yes[32] 	651
scalar tree_4_3_u02_r2_network.node[32].content_store 	decision_no[32] 	8203
scalar tree_4_3_u02_r2_network.node[32].content_store 	decision_ratio[32] 	0.073526089902869
scalar tree_4_3_u02_r2_network.node[33].core_layer 	interests[33] 	12067
scalar tree_4_3_u02_r2_network.node[33].core_layer 	data[33] 	8622
scalar tree_4_3_u02_r2_network.node[33].content_store 	p_hit[33] 	0.2854893511229
scalar tree_4_3_u02_r2_network.node[33].content_store 	hits[33] 	3445
scalar tree_4_3_u02_r2_network.node[33].content_store 	misses[33] 	8622
scalar tree_4_3_u02_r2_network.node[33].content_store 	decision_yes[33] 	343
scalar tree_4_3_u02_r2_network.node[33].content_store 	decision_no[33] 	8279
scalar tree_4_3_u02_r2_network.node[33].content_store 	decision_ratio[33] 	0.039781953143122
scalar tree_4_3_u02_r2_network.node[34].core_layer 	interests[34] 	12245
scalar tree_4_3_u02_r2_network.node[34].core_layer 	data[34] 	8656
scalar tree_4_3_u02_r2_network.node[34].content_store 	p_hit[34] 	0.29309922417313
scalar tree_4_3_u02_r2_network.node[34].content_store 	hits[34] 	3589
scalar tree_4_3_u02_r2_network.node[34].content_store 	misses[34] 	8656
scalar tree_4_3_u02_r2_network.node[34].content_store 	decision_yes[34] 	606
scalar tree_4_3_u02_r2_network.node[34].content_store 	decision_no[34] 	8050
scalar tree_4_3_u02_r2_network.node[34].content_store 	decision_ratio[34] 	0.070009242144177
scalar tree_4_3_u02_r2_network.node[35].core_layer 	interests[35] 	12304
scalar tree_4_3_u02_r2_network.node[35].core_layer 	data[35] 	8847
scalar tree_4_3_u02_r2_network.node[35].content_store 	p_hit[35] 	0.2809655396619
scalar tree_4_3_u02_r2_network.node[35].content_store 	hits[35] 	3457
scalar tree_4_3_u02_r2_network.node[35].content_store 	misses[35] 	8847
scalar tree_4_3_u02_r2_network.node[35].content_store 	decision_yes[35] 	383
scalar tree_4_3_u02_r2_network.node[35].content_store 	decision_no[35] 	8464
scalar tree_4_3_u02_r2_network.node[35].content_store 	decision_ratio[35] 	0.04329151124675
scalar tree_4_3_u02_r2_network.node[36].core_layer 	interests[36] 	12099
scalar tree_4_3_u02_r2_network.node[36].core_layer 	data[36] 	8667
scalar tree_4_3_u02_r2_network.node[36].content_store 	p_hit[36] 	0.28365980659559
scalar tree_4_3_u02_r2_network.node[36].content_store 	hits[36] 	3432
scalar tree_4_3_u02_r2_network.node[36].content_store 	misses[36] 	8667
scalar tree_4_3_u02_r2_network.node[36].content_store 	decision_yes[36] 	370
scalar tree_4_3_u02_r2_network.node[36].content_store 	decision_no[36] 	8297
scalar tree_4_3_u02_r2_network.node[36].content_store 	decision_ratio[36] 	0.042690665743625
scalar tree_4_3_u02_r2_network.node[37].core_layer 	interests[37] 	12072
scalar tree_4_3_u02_r2_network.node[37].core_layer 	data[37] 	8659
scalar tree_4_3_u02_r2_network.node[37].content_store 	p_hit[37] 	0.28272034459907
scalar tree_4_3_u02_r2_network.node[37].content_store 	hits[37] 	3413
scalar tree_4_3_u02_r2_network.node[37].content_store 	misses[37] 	8659
scalar tree_4_3_u02_r2_network.node[37].content_store 	decision_yes[37] 	347
scalar tree_4_3_u02_r2_network.node[37].content_store 	decision_no[37] 	8312
scalar tree_4_3_u02_r2_network.node[37].content_store 	decision_ratio[37] 	0.040073911537129
scalar tree_4_3_u02_r2_network.node[38].core_layer 	interests[38] 	12216
scalar tree_4_3_u02_r2_network.node[38].core_layer 	data[38] 	8596
scalar tree_4_3_u02_r2_network.node[38].content_store 	p_hit[38] 	0.29633267845449
scalar tree_4_3_u02_r2_network.node[38].content_store 	hits[38] 	3620
scalar tree_4_3_u02_r2_network.node[38].content_store 	misses[38] 	8596
scalar tree_4_3_u02_r2_network.node[38].content_store 	decision_yes[38] 	594
scalar tree_4_3_u02_r2_network.node[38].content_store 	decision_no[38] 	8002
scalar tree_4_3_u02_r2_network.node[38].content_store 	decision_ratio[38] 	0.069101907864123
scalar tree_4_3_u02_r2_network.node[39].core_layer 	interests[39] 	12167
scalar tree_4_3_u02_r2_network.node[39].core_layer 	data[39] 	8740
scalar tree_4_3_u02_r2_network.node[39].content_store 	p_hit[39] 	0.28166351606805
scalar tree_4_3_u02_r2_network.node[39].content_store 	hits[39] 	3427
scalar tree_4_3_u02_r2_network.node[39].content_store 	misses[39] 	8740
scalar tree_4_3_u02_r2_network.node[39].content_store 	decision_yes[39] 	353
scalar tree_4_3_u02_r2_network.node[39].content_store 	decision_no[39] 	8387
scalar tree_4_3_u02_r2_network.node[39].content_store 	decision_ratio[39] 	0.040389016018307
scalar tree_4_3_u02_r2_network.client[13] 	hdistance[13] 	2.7394831479468
scalar tree_4_3_u02_r2_network.client[13] 	downloads[13] 	11957
scalar tree_4_3_u02_r2_network.client[13] 	avg_time[13] 	0.004179807986
scalar tree_4_3_u02_r2_network.client[14] 	hdistance[14] 	2.7150193635292
scalar tree_4_3_u02_r2_network.client[14] 	downloads[14] 	11878
scalar tree_4_3_u02_r2_network.client[14] 	avg_time[14] 	0.004134363095
scalar tree_4_3_u02_r2_network.client[15] 	hdistance[15] 	2.7448661080992
scalar tree_4_3_u02_r2_network.client[15] 	downloads[15] 	12174
scalar tree_4_3_u02_r2_network.client[15] 	avg_time[15] 	0.004185719039
scalar tree_4_3_u02_r2_network.client[16] 	hdistance[16] 	2.7451769837276
scalar tree_4_3_u02_r2_network.client[16] 	downloads[16] 	11922
scalar tree_4_3_u02_r2_network.client[16] 	avg_time[16] 	0.004183224824
scalar tree_4_3_u02_r2_network.client[17] 	hdistance[17] 	2.756754503002
scalar tree_4_3_u02_r2_network.client[17] 	downloads[17] 	11992
scalar tree_4_3_u02_r2_network.client[17] 	avg_time[17] 	0.004197962307
scalar tree_4_3_u02_r2_network.client[18] 	hdistance[18] 	2.7221483205853
scalar tree_4_3_u02_r2_network.client[18] 	downloads[18] 	12028
scalar tree_4_3_u02_r2_network.client[18] 	avg_time[18] 	0.00414848386
scalar tree_4_3_u02_r2_network.client[19] 	hdistance[19] 	2.7442799461642
scalar tree_4_3_u02_r2_network.client[19] 	downloads[19] 	11888
scalar tree_4_3_u02_r2_network.client[19] 	avg_time[19] 	0.004187412888
scalar tree_4_3_u02_r2_network.client[20] 	hdistance[20] 	2.7467629482072
scalar tree_4_3_u02_r2_network.client[20] 	downloads[20] 	12048
scalar tree_4_3_u02_r2_network.client[20] 	avg_time[20] 	0.004184259927
scalar tree_4_3_u02_r2_network.client[21] 	hdistance[21] 	2.7196062346185
scalar tree_4_3_u02_r2_network.client[21] 	downloads[21] 	12190
scalar tree_4_3_u02_r2_network.client[21] 	avg_time[21] 	0.004149791885
scalar tree_4_3_u02_r2_network.client[22] 	hdistance[22] 	2.7623296158612
scalar tree_4_3_u02_r2_network.client[22] 	downloads[22] 	12105
scalar tree_4_3_u02_r2_network.client[22] 	avg_time[22] 	0.004209500352
scalar tree_4_3_u02_r2_network.client[23] 	hdistance[23] 	2.7652347652348
scalar tree_4_3_u02_r2_network.client[23] 	downloads[23] 	12012
scalar tree_4_3_u02_r2_network.client[23] 	avg_time[23] 	0.004218611738
scalar tree_4_3_u02_r2_network.client[24] 	hdistance[24] 	2.7404914170313
scalar tree_4_3_u02_r2_network.client[24] 	downloads[24] 	11884
scalar tree_4_3_u02_r2_network.client[24] 	avg_time[24] 	0.004181249113
scalar tree_4_3_u02_r2_network.client[25] 	hdistance[25] 	2.7460624947359
scalar tree_4_3_u02_r2_network.client[25] 	downloads[25] 	11873
scalar tree_4_3_u02_r2_network.client[25] 	avg_time[25] 	0.004191615225
scalar tree_4_3_u02_r2_network.client[26] 	hdistance[26] 	2.777189443604
scalar tree_4_3_u02_r2_network.client[26] 	downloads[26] 	11898
scalar tree_4_3_u02_r2_network.client[26] 	avg_time[26] 	0.004237204434
scalar tree_4_3_u02_r2_network.client[27] 	hdistance[27] 	2.7276193633952
scalar tree_4_3_u02_r2_network.client[27] 	downloads[27] 	12064
scalar tree_4_3_u02_r2_network.client[27] 	avg_time[27] 	0.004154672089
scalar tree_4_3_u02_r2_network.client[28] 	hdistance[28] 	2.746440397351
scalar tree_4_3_u02_r2_network.client[28] 	downloads[28] 	12080
scalar tree_4_3_u02_r2_network.client[28] 	avg_time[28] 	0.00418592416
scalar tree_4_3_u02_r2_network.client[29] 	hdistance[29] 	2.7463188893563
scalar tree_4_3_u02_r2_network.client[29] 	downloads[29] 	11885
scalar tree_4_3_u02_r2_network.client[29] 	avg_time[29] 	0.004185777425
scalar tree_4_3_u02_r2_network.client[30] 	hdistance[30] 	2.739928860948
scalar tree_4_3_u02_r2_network.client[30] 	downloads[30] 	12089
scalar tree_4_3_u02_r2_network.client[30] 	avg_time[30] 	0.004181484292
scalar tree_4_3_u02_r2_network.client[31] 	hdistance[31] 	2.7593693247482
scalar tree_4_3_u02_r2_network.client[31] 	downloads[31] 	12114
scalar tree_4_3_u02_r2_network.client[31] 	avg_time[31] 	0.004213303889
scalar tree_4_3_u02_r2_network.client[32] 	hdistance[32] 	2.7212896792421
scalar tree_4_3_u02_r2_network.client[32] 	downloads[32] 	12034
scalar tree_4_3_u02_r2_network.client[32] 	avg_time[32] 	0.004146415478
scalar tree_4_3_u02_r2_network.client[33] 	hdistance[33] 	2.7322615941419
scalar tree_4_3_u02_r2_network.client[33] 	downloads[33] 	11881
scalar tree_4_3_u02_r2_network.client[33] 	avg_time[33] 	0.004169848072
scalar tree_4_3_u02_r2_network.client[34] 	hdistance[34] 	2.726041313918
scalar tree_4_3_u02_r2_network.client[34] 	downloads[34] 	11812
scalar tree_4_3_u02_r2_network.client[34] 	avg_time[34] 	0.00414645825
scalar tree_4_3_u02_r2_network.client[35] 	hdistance[35] 	2.7426890895535
scalar tree_4_3_u02_r2_network.client[35] 	downloads[35] 	12071
scalar tree_4_3_u02_r2_network.client[35] 	avg_time[35] 	0.004189542156
scalar tree_4_3_u02_r2_network.client[36] 	hdistance[36] 	2.7421256526865
scalar tree_4_3_u02_r2_network.client[36] 	downloads[36] 	11874
scalar tree_4_3_u02_r2_network.client[36] 	avg_time[36] 	0.004179548983
scalar tree_4_3_u02_r2_network.client[37] 	hdistance[37] 	2.7339872568746
scalar tree_4_3_u02_r2_network.client[37] 	downloads[37] 	11928
scalar tree_4_3_u02_r2_network.client[37] 	avg_time[37] 	0.004178165548
scalar tree_4_3_u02_r2_network.client[38] 	hdistance[38] 	2.718715393134
scalar tree_4_3_u02_r2_network.client[38] 	downloads[38] 	11739
scalar tree_4_3_u02_r2_network.client[38] 	avg_time[38] 	0.004139872734
scalar tree_4_3_u02_r2_network.client[39] 	hdistance[39] 	2.7386278586279
scalar tree_4_3_u02_r2_network.client[39] 	downloads[39] 	12025
scalar tree_4_3_u02_r2_network.client[39] 	avg_time[39] 	0.004183448131
