version 2
run General-26-20160902-18:30:47-4279
attr a 0.9
attr cd ffc0.2
attr configname General
attr cr lru
attr datetime 20160902-18:30:47
attr experiment General
attr fsize 1
attr inifile hw5115/scenario_Y/omnetp.ini
attr iterationvars "$name=tree_4_3, $un=01, $rep=7, $cd=ffc0.2, $cr=lru, $fsize=1, $a=0.9, $sl=nrr, $ttl=1000, $variance=0.05"
attr iterationvars2 "$name=tree_4_3, $un=01, $rep=7, $cd=ffc0.2, $cr=lru, $fsize=1, $a=0.9, $sl=nrr, $ttl=1000, $variance=0.05, $repetition=0"
attr measurement "$name=tree_4_3, $un=01, $rep=7, $cd=ffc0.2, $cr=lru, $fsize=1, $a=0.9, $sl=nrr, $ttl=1000, $variance=0.05"
attr name tree_4_3
attr network networks.${name}_u${un}_r${rep}_network
attr processid 4279
attr rep 7
attr repetition 0
attr replication #0
attr resultdir results
attr runnumber 26
attr seedset 7
attr sl nrr
attr ttl 1000
attr un 01
attr variance 0.05

scalar . 	a 	0.9
scalar . 	fsize 	1
scalar . 	rep 	7
scalar . 	ttl 	1000
scalar . 	un 	01
scalar . 	variance 	0.05
scalar tree_4_3_u01_r7_network.content_distribution 	repo-0 	0
scalar tree_4_3_u01_r7_network.content_distribution 	client-0 	13
scalar tree_4_3_u01_r7_network.content_distribution 	client-1 	14
scalar tree_4_3_u01_r7_network.content_distribution 	client-2 	15
scalar tree_4_3_u01_r7_network.content_distribution 	client-3 	16
scalar tree_4_3_u01_r7_network.content_distribution 	client-4 	17
scalar tree_4_3_u01_r7_network.content_distribution 	client-5 	18
scalar tree_4_3_u01_r7_network.content_distribution 	client-6 	19
scalar tree_4_3_u01_r7_network.content_distribution 	client-7 	20
scalar tree_4_3_u01_r7_network.content_distribution 	client-8 	21
scalar tree_4_3_u01_r7_network.content_distribution 	client-9 	22
scalar tree_4_3_u01_r7_network.content_distribution 	client-10 	23
scalar tree_4_3_u01_r7_network.content_distribution 	client-11 	24
scalar tree_4_3_u01_r7_network.content_distribution 	client-12 	25
scalar tree_4_3_u01_r7_network.content_distribution 	client-13 	26
scalar tree_4_3_u01_r7_network.content_distribution 	client-14 	27
scalar tree_4_3_u01_r7_network.content_distribution 	client-15 	28
scalar tree_4_3_u01_r7_network.content_distribution 	client-16 	29
scalar tree_4_3_u01_r7_network.content_distribution 	client-17 	30
scalar tree_4_3_u01_r7_network.content_distribution 	client-18 	31
scalar tree_4_3_u01_r7_network.content_distribution 	client-19 	32
scalar tree_4_3_u01_r7_network.content_distribution 	client-20 	33
scalar tree_4_3_u01_r7_network.content_distribution 	client-21 	34
scalar tree_4_3_u01_r7_network.content_distribution 	client-22 	35
scalar tree_4_3_u01_r7_network.content_distribution 	client-23 	36
scalar tree_4_3_u01_r7_network.content_distribution 	client-24 	37
scalar tree_4_3_u01_r7_network.content_distribution 	client-25 	38
scalar tree_4_3_u01_r7_network.content_distribution 	client-26 	39
scalar tree_4_3_u01_r7_network.content_distribution 	repo-0_card 	100000
scalar tree_4_3_u01_r7_network.content_distribution 	repo-0_price 	0
scalar tree_4_3_u01_r7_network.statistics 	stabilization_time 	1763.7
scalar tree_4_3_u01_r7_network.statistics 	p_hit 	0.22352085937059
scalar tree_4_3_u01_r7_network.statistics 	interests 	24777.35
scalar tree_4_3_u01_r7_network.statistics 	data 	16671.425
scalar tree_4_3_u01_r7_network.statistics 	hdistance 	2.6476513029166
scalar tree_4_3_u01_r7_network.statistics 	avg_time 	0.004113659155
scalar tree_4_3_u01_r7_network.statistics 	downloads 	324222
scalar tree_4_3_u01_r7_network.statistics 	total_cost 	0
scalar tree_4_3_u01_r7_network.statistics 	total_replicas 	100000
scalar tree_4_3_u01_r7_network.statistics 	inner_hit 	0.40919801864155
scalar tree_4_3_u01_r7_network.node[0].core_layer 	interests[0] 	195677
scalar tree_4_3_u01_r7_network.node[0].core_layer 	repo_load[0] 	191551
scalar tree_4_3_u01_r7_network.node[0].core_layer 	data[0] 	0
scalar tree_4_3_u01_r7_network.node[0].core_layer 	repo_int[0] 	191551
scalar tree_4_3_u01_r7_network.node[0].content_store 	p_hit[0] 	0.021085768894658
scalar tree_4_3_u01_r7_network.node[0].content_store 	hits[0] 	4126
scalar tree_4_3_u01_r7_network.node[0].content_store 	misses[0] 	191551
scalar tree_4_3_u01_r7_network.node[0].content_store 	decision_yes[0] 	204
scalar tree_4_3_u01_r7_network.node[0].content_store 	decision_no[0] 	191347
scalar tree_4_3_u01_r7_network.node[0].content_store 	decision_ratio[0] 	0.0010649905247167
scalar tree_4_3_u01_r7_network.node[1].core_layer 	interests[1] 	70933
scalar tree_4_3_u01_r7_network.node[1].core_layer 	data[1] 	68403
scalar tree_4_3_u01_r7_network.node[1].content_store 	p_hit[1] 	0.035639265222111
scalar tree_4_3_u01_r7_network.node[1].content_store 	hits[1] 	2528
scalar tree_4_3_u01_r7_network.node[1].content_store 	misses[1] 	68405
scalar tree_4_3_u01_r7_network.node[1].content_store 	decision_yes[1] 	89
scalar tree_4_3_u01_r7_network.node[1].content_store 	decision_no[1] 	68314
scalar tree_4_3_u01_r7_network.node[1].content_store 	decision_ratio[1] 	0.0013011125243045
scalar tree_4_3_u01_r7_network.node[2].core_layer 	interests[2] 	70631
scalar tree_4_3_u01_r7_network.node[2].core_layer 	data[2] 	68233
scalar tree_4_3_u01_r7_network.node[2].content_store 	p_hit[2] 	0.033936939870595
scalar tree_4_3_u01_r7_network.node[2].content_store 	hits[2] 	2397
scalar tree_4_3_u01_r7_network.node[2].content_store 	misses[2] 	68234
scalar tree_4_3_u01_r7_network.node[2].content_store 	decision_yes[2] 	85
scalar tree_4_3_u01_r7_network.node[2].content_store 	decision_no[2] 	68148
scalar tree_4_3_u01_r7_network.node[2].content_store 	decision_ratio[2] 	0.0012457315375258
scalar tree_4_3_u01_r7_network.node[3].core_layer 	interests[3] 	71438
scalar tree_4_3_u01_r7_network.node[3].core_layer 	data[3] 	68866
scalar tree_4_3_u01_r7_network.node[3].content_store 	p_hit[3] 	0.035989249419077
scalar tree_4_3_u01_r7_network.node[3].content_store 	hits[3] 	2571
scalar tree_4_3_u01_r7_network.node[3].content_store 	misses[3] 	68867
scalar tree_4_3_u01_r7_network.node[3].content_store 	decision_yes[3] 	73
scalar tree_4_3_u01_r7_network.node[3].content_store 	decision_no[3] 	68793
scalar tree_4_3_u01_r7_network.node[3].content_store 	decision_ratio[3] 	0.0010600296227456
scalar tree_4_3_u01_r7_network.node[4].core_layer 	interests[4] 	35981
scalar tree_4_3_u01_r7_network.node[4].core_layer 	data[4] 	33372
scalar tree_4_3_u01_r7_network.node[4].content_store 	p_hit[4] 	0.072482699202357
scalar tree_4_3_u01_r7_network.node[4].content_store 	hits[4] 	2608
scalar tree_4_3_u01_r7_network.node[4].content_store 	misses[4] 	33373
scalar tree_4_3_u01_r7_network.node[4].content_store 	decision_yes[4] 	65
scalar tree_4_3_u01_r7_network.node[4].content_store 	decision_no[4] 	33307
scalar tree_4_3_u01_r7_network.node[4].content_store 	decision_ratio[4] 	0.0019477406208798
scalar tree_4_3_u01_r7_network.node[5].core_layer 	interests[5] 	26807
scalar tree_4_3_u01_r7_network.node[5].core_layer 	data[5] 	24719
scalar tree_4_3_u01_r7_network.node[5].content_store 	p_hit[5] 	0.077852799641885
scalar tree_4_3_u01_r7_network.node[5].content_store 	hits[5] 	2087
scalar tree_4_3_u01_r7_network.node[5].content_store 	misses[5] 	24720
scalar tree_4_3_u01_r7_network.node[5].content_store 	decision_yes[5] 	51
scalar tree_4_3_u01_r7_network.node[5].content_store 	decision_no[5] 	24668
scalar tree_4_3_u01_r7_network.node[5].content_store 	decision_ratio[5] 	0.0020631902585056
scalar tree_4_3_u01_r7_network.node[6].core_layer 	interests[6] 	19716
scalar tree_4_3_u01_r7_network.node[6].core_layer 	data[6] 	17195
scalar tree_4_3_u01_r7_network.node[6].content_store 	p_hit[6] 	0.1278656928383
scalar tree_4_3_u01_r7_network.node[6].content_store 	hits[6] 	2521
scalar tree_4_3_u01_r7_network.node[6].content_store 	misses[6] 	17195
scalar tree_4_3_u01_r7_network.node[6].content_store 	decision_yes[6] 	52
scalar tree_4_3_u01_r7_network.node[6].content_store 	decision_no[6] 	17143
scalar tree_4_3_u01_r7_network.node[6].content_store 	decision_ratio[6] 	0.0030241349229427
scalar tree_4_3_u01_r7_network.node[7].core_layer 	interests[7] 	35244
scalar tree_4_3_u01_r7_network.node[7].core_layer 	data[7] 	32575
scalar tree_4_3_u01_r7_network.node[7].content_store 	p_hit[7] 	0.075700828509817
scalar tree_4_3_u01_r7_network.node[7].content_store 	hits[7] 	2668
scalar tree_4_3_u01_r7_network.node[7].content_store 	misses[7] 	32576
scalar tree_4_3_u01_r7_network.node[7].content_store 	decision_yes[7] 	50
scalar tree_4_3_u01_r7_network.node[7].content_store 	decision_no[7] 	32525
scalar tree_4_3_u01_r7_network.node[7].content_store 	decision_ratio[7] 	0.0015349194167306
scalar tree_4_3_u01_r7_network.node[8].core_layer 	interests[8] 	18910
scalar tree_4_3_u01_r7_network.node[8].core_layer 	data[8] 	16897
scalar tree_4_3_u01_r7_network.node[8].content_store 	p_hit[8] 	0.10645161290323
scalar tree_4_3_u01_r7_network.node[8].content_store 	hits[8] 	2013
scalar tree_4_3_u01_r7_network.node[8].content_store 	misses[8] 	16897
scalar tree_4_3_u01_r7_network.node[8].content_store 	decision_yes[8] 	36
scalar tree_4_3_u01_r7_network.node[8].content_store 	decision_no[8] 	16861
scalar tree_4_3_u01_r7_network.node[8].content_store 	decision_ratio[8] 	0.0021305557199503
scalar tree_4_3_u01_r7_network.node[9].core_layer 	interests[9] 	27304
scalar tree_4_3_u01_r7_network.node[9].core_layer 	data[9] 	24997
scalar tree_4_3_u01_r7_network.node[9].content_store 	p_hit[9] 	0.084456489891591
scalar tree_4_3_u01_r7_network.node[9].content_store 	hits[9] 	2306
scalar tree_4_3_u01_r7_network.node[9].content_store 	misses[9] 	24998
scalar tree_4_3_u01_r7_network.node[9].content_store 	decision_yes[9] 	60
scalar tree_4_3_u01_r7_network.node[9].content_store 	decision_no[9] 	24937
scalar tree_4_3_u01_r7_network.node[9].content_store 	decision_ratio[9] 	0.0024002880345641
scalar tree_4_3_u01_r7_network.node[10].core_layer 	interests[10] 	27389
scalar tree_4_3_u01_r7_network.node[10].core_layer 	data[10] 	25060
scalar tree_4_3_u01_r7_network.node[10].content_store 	p_hit[10] 	0.084961115776407
scalar tree_4_3_u01_r7_network.node[10].content_store 	hits[10] 	2327
scalar tree_4_3_u01_r7_network.node[10].content_store 	misses[10] 	25062
scalar tree_4_3_u01_r7_network.node[10].content_store 	decision_yes[10] 	51
scalar tree_4_3_u01_r7_network.node[10].content_store 	decision_no[10] 	25009
scalar tree_4_3_u01_r7_network.node[10].content_store 	decision_ratio[10] 	0.0020351157222666
scalar tree_4_3_u01_r7_network.node[11].core_layer 	interests[11] 	27384
scalar tree_4_3_u01_r7_network.node[11].core_layer 	data[11] 	25088
scalar tree_4_3_u01_r7_network.node[11].content_store 	p_hit[11] 	0.083844580777096
scalar tree_4_3_u01_r7_network.node[11].content_store 	hits[11] 	2296
scalar tree_4_3_u01_r7_network.node[11].content_store 	misses[11] 	25088
scalar tree_4_3_u01_r7_network.node[11].content_store 	decision_yes[11] 	57
scalar tree_4_3_u01_r7_network.node[11].content_store 	decision_no[11] 	25031
scalar tree_4_3_u01_r7_network.node[11].content_store 	decision_ratio[11] 	0.0022720025510204
scalar tree_4_3_u01_r7_network.node[12].core_layer 	interests[12] 	27500
scalar tree_4_3_u01_r7_network.node[12].core_layer 	data[12] 	25048
scalar tree_4_3_u01_r7_network.node[12].content_store 	p_hit[12] 	0.089127272727273
scalar tree_4_3_u01_r7_network.node[12].content_store 	hits[12] 	2451
scalar tree_4_3_u01_r7_network.node[12].content_store 	misses[12] 	25049
scalar tree_4_3_u01_r7_network.node[12].content_store 	decision_yes[12] 	55
scalar tree_4_3_u01_r7_network.node[12].content_store 	decision_no[12] 	24993
scalar tree_4_3_u01_r7_network.node[12].content_store 	decision_ratio[12] 	0.0021957840945385
scalar tree_4_3_u01_r7_network.node[13].core_layer 	interests[13] 	12392
scalar tree_4_3_u01_r7_network.node[13].core_layer 	data[13] 	8638
scalar tree_4_3_u01_r7_network.node[13].content_store 	p_hit[13] 	0.30293737895416
scalar tree_4_3_u01_r7_network.node[13].content_store 	hits[13] 	3754
scalar tree_4_3_u01_r7_network.node[13].content_store 	misses[13] 	8638
scalar tree_4_3_u01_r7_network.node[13].content_store 	decision_yes[13] 	26
scalar tree_4_3_u01_r7_network.node[13].content_store 	decision_no[13] 	8612
scalar tree_4_3_u01_r7_network.node[13].content_store 	decision_ratio[13] 	0.0030099560083353
scalar tree_4_3_u01_r7_network.node[14].core_layer 	interests[14] 	12613
scalar tree_4_3_u01_r7_network.node[14].core_layer 	data[14] 	8978
scalar tree_4_3_u01_r7_network.node[14].content_store 	p_hit[14] 	0.28811543645445
scalar tree_4_3_u01_r7_network.node[14].content_store 	hits[14] 	3634
scalar tree_4_3_u01_r7_network.node[14].content_store 	misses[14] 	8979
scalar tree_4_3_u01_r7_network.node[14].content_store 	decision_yes[14] 	27
scalar tree_4_3_u01_r7_network.node[14].content_store 	decision_no[14] 	8951
scalar tree_4_3_u01_r7_network.node[14].content_store 	decision_ratio[14] 	0.0030073513031856
scalar tree_4_3_u01_r7_network.node[15].core_layer 	interests[15] 	12693
scalar tree_4_3_u01_r7_network.node[15].core_layer 	data[15] 	8867
scalar tree_4_3_u01_r7_network.node[15].content_store 	p_hit[15] 	0.30142598282518
scalar tree_4_3_u01_r7_network.node[15].content_store 	hits[15] 	3826
scalar tree_4_3_u01_r7_network.node[15].content_store 	misses[15] 	8867
scalar tree_4_3_u01_r7_network.node[15].content_store 	decision_yes[15] 	24
scalar tree_4_3_u01_r7_network.node[15].content_store 	decision_no[15] 	8843
scalar tree_4_3_u01_r7_network.node[15].content_store 	decision_ratio[15] 	0.0027066651629638
scalar tree_4_3_u01_r7_network.node[16].core_layer 	interests[16] 	12482
scalar tree_4_3_u01_r7_network.node[16].core_layer 	data[16] 	8799
scalar tree_4_3_u01_r7_network.node[16].content_store 	p_hit[16] 	0.29498477808044
scalar tree_4_3_u01_r7_network.node[16].content_store 	hits[16] 	3682
scalar tree_4_3_u01_r7_network.node[16].content_store 	misses[16] 	8800
scalar tree_4_3_u01_r7_network.node[16].content_store 	decision_yes[16] 	29
scalar tree_4_3_u01_r7_network.node[16].content_store 	decision_no[16] 	8770
scalar tree_4_3_u01_r7_network.node[16].content_store 	decision_ratio[16] 	0.0032958290714854
scalar tree_4_3_u01_r7_network.node[17].core_layer 	interests[17] 	12283
scalar tree_4_3_u01_r7_network.node[17].core_layer 	data[17] 	8694
scalar tree_4_3_u01_r7_network.node[17].content_store 	p_hit[17] 	0.29219246112513
scalar tree_4_3_u01_r7_network.node[17].content_store 	hits[17] 	3589
scalar tree_4_3_u01_r7_network.node[17].content_store 	misses[17] 	8694
scalar tree_4_3_u01_r7_network.node[17].content_store 	decision_yes[17] 	17
scalar tree_4_3_u01_r7_network.node[17].content_store 	decision_no[17] 	8677
scalar tree_4_3_u01_r7_network.node[17].content_store 	decision_ratio[17] 	0.0019553715205889
scalar tree_4_3_u01_r7_network.node[18].core_layer 	interests[18] 	12786
scalar tree_4_3_u01_r7_network.node[18].core_layer 	data[18] 	8854
scalar tree_4_3_u01_r7_network.node[18].content_store 	p_hit[18] 	0.30752385421555
scalar tree_4_3_u01_r7_network.node[18].content_store 	hits[18] 	3932
scalar tree_4_3_u01_r7_network.node[18].content_store 	misses[18] 	8854
scalar tree_4_3_u01_r7_network.node[18].content_store 	decision_yes[18] 	18
scalar tree_4_3_u01_r7_network.node[18].content_store 	decision_no[18] 	8836
scalar tree_4_3_u01_r7_network.node[18].content_store 	decision_ratio[18] 	0.002032979444319
scalar tree_4_3_u01_r7_network.node[19].core_layer 	interests[19] 	12983
scalar tree_4_3_u01_r7_network.node[19].core_layer 	data[19] 	8993
scalar tree_4_3_u01_r7_network.node[19].content_store 	p_hit[19] 	0.30732496341369
scalar tree_4_3_u01_r7_network.node[19].content_store 	hits[19] 	3990
scalar tree_4_3_u01_r7_network.node[19].content_store 	misses[19] 	8993
scalar tree_4_3_u01_r7_network.node[19].content_store 	decision_yes[19] 	25
scalar tree_4_3_u01_r7_network.node[19].content_store 	decision_no[19] 	8968
scalar tree_4_3_u01_r7_network.node[19].content_store 	decision_ratio[19] 	0.002779939953297
scalar tree_4_3_u01_r7_network.node[20].core_layer 	interests[20] 	12416
scalar tree_4_3_u01_r7_network.node[20].core_layer 	data[20] 	8846
scalar tree_4_3_u01_r7_network.node[20].content_store 	p_hit[20] 	0.28753221649485
scalar tree_4_3_u01_r7_network.node[20].content_store 	hits[20] 	3570
scalar tree_4_3_u01_r7_network.node[20].content_store 	misses[20] 	8846
scalar tree_4_3_u01_r7_network.node[20].content_store 	decision_yes[20] 	20
scalar tree_4_3_u01_r7_network.node[20].content_store 	decision_no[20] 	8826
scalar tree_4_3_u01_r7_network.node[20].content_store 	decision_ratio[20] 	0.0022609088853719
scalar tree_4_3_u01_r7_network.node[21].core_layer 	interests[21] 	12324
scalar tree_4_3_u01_r7_network.node[21].core_layer 	data[21] 	8782
scalar tree_4_3_u01_r7_network.node[21].content_store 	p_hit[21] 	0.28732554365466
scalar tree_4_3_u01_r7_network.node[21].content_store 	hits[21] 	3541
scalar tree_4_3_u01_r7_network.node[21].content_store 	misses[21] 	8783
scalar tree_4_3_u01_r7_network.node[21].content_store 	decision_yes[21] 	26
scalar tree_4_3_u01_r7_network.node[21].content_store 	decision_no[21] 	8756
scalar tree_4_3_u01_r7_network.node[21].content_store 	decision_ratio[21] 	0.0029606012297882
scalar tree_4_3_u01_r7_network.node[22].core_layer 	interests[22] 	12383
scalar tree_4_3_u01_r7_network.node[22].core_layer 	data[22] 	8660
scalar tree_4_3_u01_r7_network.node[22].content_store 	p_hit[22] 	0.30065412258742
scalar tree_4_3_u01_r7_network.node[22].content_store 	hits[22] 	3723
scalar tree_4_3_u01_r7_network.node[22].content_store 	misses[22] 	8660
scalar tree_4_3_u01_r7_network.node[22].content_store 	decision_yes[22] 	32
scalar tree_4_3_u01_r7_network.node[22].content_store 	decision_no[22] 	8628
scalar tree_4_3_u01_r7_network.node[22].content_store 	decision_ratio[22] 	0.0036951501154734
scalar tree_4_3_u01_r7_network.node[23].core_layer 	interests[23] 	12361
scalar tree_4_3_u01_r7_network.node[23].core_layer 	data[23] 	8618
scalar tree_4_3_u01_r7_network.node[23].content_store 	p_hit[23] 	0.30280721624464
scalar tree_4_3_u01_r7_network.node[23].content_store 	hits[23] 	3743
scalar tree_4_3_u01_r7_network.node[23].content_store 	misses[23] 	8618
scalar tree_4_3_u01_r7_network.node[23].content_store 	decision_yes[23] 	22
scalar tree_4_3_u01_r7_network.node[23].content_store 	decision_no[23] 	8596
scalar tree_4_3_u01_r7_network.node[23].content_store 	decision_ratio[23] 	0.0025527964724994
scalar tree_4_3_u01_r7_network.node[24].core_layer 	interests[24] 	12303
scalar tree_4_3_u01_r7_network.node[24].core_layer 	data[24] 	8705
scalar tree_4_3_u01_r7_network.node[24].content_store 	p_hit[24] 	0.29244899617979
scalar tree_4_3_u01_r7_network.node[24].content_store 	hits[24] 	3598
scalar tree_4_3_u01_r7_network.node[24].content_store 	misses[24] 	8705
scalar tree_4_3_u01_r7_network.node[24].content_store 	decision_yes[24] 	23
scalar tree_4_3_u01_r7_network.node[24].content_store 	decision_no[24] 	8682
scalar tree_4_3_u01_r7_network.node[24].content_store 	decision_ratio[24] 	0.0026421596783458
scalar tree_4_3_u01_r7_network.node[25].core_layer 	interests[25] 	12656
scalar tree_4_3_u01_r7_network.node[25].core_layer 	data[25] 	8739
scalar tree_4_3_u01_r7_network.node[25].content_store 	p_hit[25] 	0.30949747155499
scalar tree_4_3_u01_r7_network.node[25].content_store 	hits[25] 	3917
scalar tree_4_3_u01_r7_network.node[25].content_store 	misses[25] 	8739
scalar tree_4_3_u01_r7_network.node[25].content_store 	decision_yes[25] 	35
scalar tree_4_3_u01_r7_network.node[25].content_store 	decision_no[25] 	8704
scalar tree_4_3_u01_r7_network.node[25].content_store 	decision_ratio[25] 	0.0040050349010184
scalar tree_4_3_u01_r7_network.node[26].core_layer 	interests[26] 	12085
scalar tree_4_3_u01_r7_network.node[26].core_layer 	data[26] 	8601
scalar tree_4_3_u01_r7_network.node[26].content_store 	p_hit[26] 	0.28829127016963
scalar tree_4_3_u01_r7_network.node[26].content_store 	hits[26] 	3484
scalar tree_4_3_u01_r7_network.node[26].content_store 	misses[26] 	8601
scalar tree_4_3_u01_r7_network.node[26].content_store 	decision_yes[26] 	30
scalar tree_4_3_u01_r7_network.node[26].content_store 	decision_no[26] 	8571
scalar tree_4_3_u01_r7_network.node[26].content_store 	decision_ratio[26] 	0.0034879665155215
scalar tree_4_3_u01_r7_network.node[27].core_layer 	interests[27] 	12356
scalar tree_4_3_u01_r7_network.node[27].core_layer 	data[27] 	8886
scalar tree_4_3_u01_r7_network.node[27].content_store 	p_hit[27] 	0.28083522175461
scalar tree_4_3_u01_r7_network.node[27].content_store 	hits[27] 	3470
scalar tree_4_3_u01_r7_network.node[27].content_store 	misses[27] 	8886
scalar tree_4_3_u01_r7_network.node[27].content_store 	decision_yes[27] 	25
scalar tree_4_3_u01_r7_network.node[27].content_store 	decision_no[27] 	8861
scalar tree_4_3_u01_r7_network.node[27].content_store 	decision_ratio[27] 	0.0028134143596669
scalar tree_4_3_u01_r7_network.node[28].core_layer 	interests[28] 	12473
scalar tree_4_3_u01_r7_network.node[28].core_layer 	data[28] 	8797
scalar tree_4_3_u01_r7_network.node[28].content_store 	p_hit[28] 	0.29463641465566
scalar tree_4_3_u01_r7_network.node[28].content_store 	hits[28] 	3675
scalar tree_4_3_u01_r7_network.node[28].content_store 	misses[28] 	8798
scalar tree_4_3_u01_r7_network.node[28].content_store 	decision_yes[28] 	22
scalar tree_4_3_u01_r7_network.node[28].content_store 	decision_no[28] 	8775
scalar tree_4_3_u01_r7_network.node[28].content_store 	decision_ratio[28] 	0.0025008525633739
scalar tree_4_3_u01_r7_network.node[29].core_layer 	interests[29] 	12382
scalar tree_4_3_u01_r7_network.node[29].core_layer 	data[29] 	8653
scalar tree_4_3_u01_r7_network.node[29].content_store 	p_hit[29] 	0.3011629785172
scalar tree_4_3_u01_r7_network.node[29].content_store 	hits[29] 	3729
scalar tree_4_3_u01_r7_network.node[29].content_store 	misses[29] 	8653
scalar tree_4_3_u01_r7_network.node[29].content_store 	decision_yes[29] 	18
scalar tree_4_3_u01_r7_network.node[29].content_store 	decision_no[29] 	8635
scalar tree_4_3_u01_r7_network.node[29].content_store 	decision_ratio[29] 	0.0020802033976655
scalar tree_4_3_u01_r7_network.node[30].core_layer 	interests[30] 	12417
scalar tree_4_3_u01_r7_network.node[30].core_layer 	data[30] 	8673
scalar tree_4_3_u01_r7_network.node[30].content_store 	p_hit[30] 	0.30152210678908
scalar tree_4_3_u01_r7_network.node[30].content_store 	hits[30] 	3744
scalar tree_4_3_u01_r7_network.node[30].content_store 	misses[30] 	8673
scalar tree_4_3_u01_r7_network.node[30].content_store 	decision_yes[30] 	21
scalar tree_4_3_u01_r7_network.node[30].content_store 	decision_no[30] 	8652
scalar tree_4_3_u01_r7_network.node[30].content_store 	decision_ratio[30] 	0.0024213075060533
scalar tree_4_3_u01_r7_network.node[31].core_layer 	interests[31] 	12602
scalar tree_4_3_u01_r7_network.node[31].core_layer 	data[31] 	8965
scalar tree_4_3_u01_r7_network.node[31].content_store 	p_hit[31] 	0.28860498333598
scalar tree_4_3_u01_r7_network.node[31].content_store 	hits[31] 	3637
scalar tree_4_3_u01_r7_network.node[31].content_store 	misses[31] 	8965
scalar tree_4_3_u01_r7_network.node[31].content_store 	decision_yes[31] 	20
scalar tree_4_3_u01_r7_network.node[31].content_store 	decision_no[31] 	8945
scalar tree_4_3_u01_r7_network.node[31].content_store 	decision_ratio[31] 	0.0022308979364194
scalar tree_4_3_u01_r7_network.node[32].core_layer 	interests[32] 	12391
scalar tree_4_3_u01_r7_network.node[32].core_layer 	data[32] 	8776
scalar tree_4_3_u01_r7_network.node[32].content_store 	p_hit[32] 	0.29174400774756
scalar tree_4_3_u01_r7_network.node[32].content_store 	hits[32] 	3615
scalar tree_4_3_u01_r7_network.node[32].content_store 	misses[32] 	8776
scalar tree_4_3_u01_r7_network.node[32].content_store 	decision_yes[32] 	20
scalar tree_4_3_u01_r7_network.node[32].content_store 	decision_no[32] 	8756
scalar tree_4_3_u01_r7_network.node[32].content_store 	decision_ratio[32] 	0.0022789425706472
scalar tree_4_3_u01_r7_network.node[33].core_layer 	interests[33] 	12074
scalar tree_4_3_u01_r7_network.node[33].core_layer 	data[33] 	8548
scalar tree_4_3_u01_r7_network.node[33].content_store 	p_hit[33] 	0.29186682126884
scalar tree_4_3_u01_r7_network.node[33].content_store 	hits[33] 	3524
scalar tree_4_3_u01_r7_network.node[33].content_store 	misses[33] 	8550
scalar tree_4_3_u01_r7_network.node[33].content_store 	decision_yes[33] 	17
scalar tree_4_3_u01_r7_network.node[33].content_store 	decision_no[33] 	8531
scalar tree_4_3_u01_r7_network.node[33].content_store 	decision_ratio[33] 	0.0019887693027609
scalar tree_4_3_u01_r7_network.node[34].core_layer 	interests[34] 	12324
scalar tree_4_3_u01_r7_network.node[34].core_layer 	data[34] 	8604
scalar tree_4_3_u01_r7_network.node[34].content_store 	p_hit[34] 	0.30185004868549
scalar tree_4_3_u01_r7_network.node[34].content_store 	hits[34] 	3720
scalar tree_4_3_u01_r7_network.node[34].content_store 	misses[34] 	8604
scalar tree_4_3_u01_r7_network.node[34].content_store 	decision_yes[34] 	23
scalar tree_4_3_u01_r7_network.node[34].content_store 	decision_no[34] 	8581
scalar tree_4_3_u01_r7_network.node[34].content_store 	decision_ratio[34] 	0.0026731752673175
scalar tree_4_3_u01_r7_network.node[35].core_layer 	interests[35] 	12599
scalar tree_4_3_u01_r7_network.node[35].core_layer 	data[35] 	8773
scalar tree_4_3_u01_r7_network.node[35].content_store 	p_hit[35] 	0.30367489483292
scalar tree_4_3_u01_r7_network.node[35].content_store 	hits[35] 	3826
scalar tree_4_3_u01_r7_network.node[35].content_store 	misses[35] 	8773
scalar tree_4_3_u01_r7_network.node[35].content_store 	decision_yes[35] 	30
scalar tree_4_3_u01_r7_network.node[35].content_store 	decision_no[35] 	8743
scalar tree_4_3_u01_r7_network.node[35].content_store 	decision_ratio[35] 	0.0034195828108971
scalar tree_4_3_u01_r7_network.node[36].core_layer 	interests[36] 	12465
scalar tree_4_3_u01_r7_network.node[36].core_layer 	data[36] 	8780
scalar tree_4_3_u01_r7_network.node[36].content_store 	p_hit[36] 	0.29562775772162
scalar tree_4_3_u01_r7_network.node[36].content_store 	hits[36] 	3685
scalar tree_4_3_u01_r7_network.node[36].content_store 	misses[36] 	8780
scalar tree_4_3_u01_r7_network.node[36].content_store 	decision_yes[36] 	24
scalar tree_4_3_u01_r7_network.node[36].content_store 	decision_no[36] 	8756
scalar tree_4_3_u01_r7_network.node[36].content_store 	decision_ratio[36] 	0.0027334851936219
scalar tree_4_3_u01_r7_network.node[37].core_layer 	interests[37] 	12438
scalar tree_4_3_u01_r7_network.node[37].core_layer 	data[37] 	8731
scalar tree_4_3_u01_r7_network.node[37].content_store 	p_hit[37] 	0.2980382698183
scalar tree_4_3_u01_r7_network.node[37].content_store 	hits[37] 	3707
scalar tree_4_3_u01_r7_network.node[37].content_store 	misses[37] 	8731
scalar tree_4_3_u01_r7_network.node[37].content_store 	decision_yes[37] 	24
scalar tree_4_3_u01_r7_network.node[37].content_store 	decision_no[37] 	8707
scalar tree_4_3_u01_r7_network.node[37].content_store 	decision_ratio[37] 	0.0027488260222197
scalar tree_4_3_u01_r7_network.node[38].core_layer 	interests[38] 	12401
scalar tree_4_3_u01_r7_network.node[38].core_layer 	data[38] 	8695
scalar tree_4_3_u01_r7_network.node[38].content_store 	p_hit[38] 	0.29884686718813
scalar tree_4_3_u01_r7_network.node[38].content_store 	hits[38] 	3706
scalar tree_4_3_u01_r7_network.node[38].content_store 	misses[38] 	8695
scalar tree_4_3_u01_r7_network.node[38].content_store 	decision_yes[38] 	12
scalar tree_4_3_u01_r7_network.node[38].content_store 	decision_no[38] 	8683
scalar tree_4_3_u01_r7_network.node[38].content_store 	decision_ratio[38] 	0.0013801035077631
scalar tree_4_3_u01_r7_network.node[39].core_layer 	interests[39] 	12498
scalar tree_4_3_u01_r7_network.node[39].core_layer 	data[39] 	8749
scalar tree_4_3_u01_r7_network.node[39].content_store 	p_hit[39] 	0.29996799487918
scalar tree_4_3_u01_r7_network.node[39].content_store 	hits[39] 	3749
scalar tree_4_3_u01_r7_network.node[39].content_store 	misses[39] 	8749
scalar tree_4_3_u01_r7_network.node[39].content_store 	decision_yes[39] 	19
scalar tree_4_3_u01_r7_network.node[39].content_store 	decision_no[39] 	8730
scalar tree_4_3_u01_r7_network.node[39].content_store 	decision_ratio[39] 	0.0021716767630586
scalar tree_4_3_u01_r7_network.client[13] 	hdistance[13] 	2.6256832898831
scalar tree_4_3_u01_r7_network.client[13] 	downloads[13] 	11891
scalar tree_4_3_u01_r7_network.client[13] 	avg_time[13] 	0.004086449002
scalar tree_4_3_u01_r7_network.client[14] 	hdistance[14] 	2.6794132190539
scalar tree_4_3_u01_r7_network.client[14] 	downloads[14] 	12134
scalar tree_4_3_u01_r7_network.client[14] 	avg_time[14] 	0.004163998964
scalar tree_4_3_u01_r7_network.client[15] 	hdistance[15] 	2.6451586455686
scalar tree_4_3_u01_r7_network.client[15] 	downloads[15] 	12197
scalar tree_4_3_u01_r7_network.client[15] 	avg_time[15] 	0.004112647592
scalar tree_4_3_u01_r7_network.client[16] 	hdistance[16] 	2.6576613905693
scalar tree_4_3_u01_r7_network.client[16] 	downloads[16] 	12067
scalar tree_4_3_u01_r7_network.client[16] 	avg_time[16] 	0.004138225187
scalar tree_4_3_u01_r7_network.client[17] 	hdistance[17] 	2.6489700217719
scalar tree_4_3_u01_r7_network.client[17] 	downloads[17] 	11942
scalar tree_4_3_u01_r7_network.client[17] 	avg_time[17] 	0.004122589552
scalar tree_4_3_u01_r7_network.client[18] 	hdistance[18] 	2.6099208965063
scalar tree_4_3_u01_r7_network.client[18] 	downloads[18] 	12136
scalar tree_4_3_u01_r7_network.client[18] 	avg_time[18] 	0.004036747141
scalar tree_4_3_u01_r7_network.client[19] 	hdistance[19] 	2.6067691301504
scalar tree_4_3_u01_r7_network.client[19] 	downloads[19] 	12232
scalar tree_4_3_u01_r7_network.client[19] 	avg_time[19] 	0.00403367907
scalar tree_4_3_u01_r7_network.client[20] 	hdistance[20] 	2.6619461697723
scalar tree_4_3_u01_r7_network.client[20] 	downloads[20] 	12075
scalar tree_4_3_u01_r7_network.client[20] 	avg_time[20] 	0.00414469518
scalar tree_4_3_u01_r7_network.client[21] 	hdistance[21] 	2.6630097981744
scalar tree_4_3_u01_r7_network.client[21] 	downloads[21] 	11941
scalar tree_4_3_u01_r7_network.client[21] 	avg_time[21] 	0.004141693703
scalar tree_4_3_u01_r7_network.client[22] 	hdistance[22] 	2.622244488978
scalar tree_4_3_u01_r7_network.client[22] 	downloads[22] 	11976
scalar tree_4_3_u01_r7_network.client[22] 	avg_time[22] 	0.004068968272
scalar tree_4_3_u01_r7_network.client[23] 	hdistance[23] 	2.6362872036321
scalar tree_4_3_u01_r7_network.client[23] 	downloads[23] 	11894
scalar tree_4_3_u01_r7_network.client[23] 	avg_time[23] 	0.004091808021
scalar tree_4_3_u01_r7_network.client[24] 	hdistance[24] 	2.651983860121
scalar tree_4_3_u01_r7_network.client[24] 	downloads[24] 	11896
scalar tree_4_3_u01_r7_network.client[24] 	avg_time[24] 	0.004116178467
scalar tree_4_3_u01_r7_network.client[25] 	hdistance[25] 	2.5965937552179
scalar tree_4_3_u01_r7_network.client[25] 	downloads[25] 	11978
scalar tree_4_3_u01_r7_network.client[25] 	avg_time[25] 	0.004018808612
scalar tree_4_3_u01_r7_network.client[26] 	hdistance[26] 	2.6797496193537
scalar tree_4_3_u01_r7_network.client[26] 	downloads[26] 	11822
scalar tree_4_3_u01_r7_network.client[26] 	avg_time[26] 	0.004158853414
scalar tree_4_3_u01_r7_network.client[27] 	hdistance[27] 	2.7018576878421
scalar tree_4_3_u01_r7_network.client[27] 	downloads[27] 	12058
scalar tree_4_3_u01_r7_network.client[27] 	avg_time[27] 	0.004199200844
scalar tree_4_3_u01_r7_network.client[28] 	hdistance[28] 	2.6575160136428
scalar tree_4_3_u01_r7_network.client[28] 	downloads[28] 	12021
scalar tree_4_3_u01_r7_network.client[28] 	avg_time[28] 	0.004133263772
scalar tree_4_3_u01_r7_network.client[29] 	hdistance[29] 	2.6490875606898
scalar tree_4_3_u01_r7_network.client[29] 	downloads[29] 	11946
scalar tree_4_3_u01_r7_network.client[29] 	avg_time[29] 	0.004121041698
scalar tree_4_3_u01_r7_network.client[30] 	hdistance[30] 	2.6236962870255
scalar tree_4_3_u01_r7_network.client[30] 	downloads[30] 	11985
scalar tree_4_3_u01_r7_network.client[30] 	avg_time[30] 	0.004075925252
scalar tree_4_3_u01_r7_network.client[31] 	hdistance[31] 	2.6644355562811
scalar tree_4_3_u01_r7_network.client[31] 	downloads[31] 	12251
scalar tree_4_3_u01_r7_network.client[31] 	avg_time[31] 	0.00414581896
scalar tree_4_3_u01_r7_network.client[32] 	hdistance[32] 	2.6680205570292
scalar tree_4_3_u01_r7_network.client[32] 	downloads[32] 	12064
scalar tree_4_3_u01_r7_network.client[32] 	avg_time[32] 	0.00414505668
scalar tree_4_3_u01_r7_network.client[33] 	hdistance[33] 	2.6694589281135
scalar tree_4_3_u01_r7_network.client[33] 	downloads[33] 	11699
scalar tree_4_3_u01_r7_network.client[33] 	avg_time[33] 	0.004147360105
scalar tree_4_3_u01_r7_network.client[34] 	hdistance[34] 	2.6209934552777
scalar tree_4_3_u01_r7_network.client[34] 	downloads[34] 	11918
scalar tree_4_3_u01_r7_network.client[34] 	avg_time[34] 	0.004080044024
scalar tree_4_3_u01_r7_network.client[35] 	hdistance[35] 	2.6364461310015
scalar tree_4_3_u01_r7_network.client[35] 	downloads[35] 	12122
scalar tree_4_3_u01_r7_network.client[35] 	avg_time[35] 	0.004103940193
scalar tree_4_3_u01_r7_network.client[36] 	hdistance[36] 	2.676600717923
scalar tree_4_3_u01_r7_network.client[36] 	downloads[36] 	11979
scalar tree_4_3_u01_r7_network.client[36] 	avg_time[36] 	0.004159943584
scalar tree_4_3_u01_r7_network.client[37] 	hdistance[37] 	2.6506004002668
scalar tree_4_3_u01_r7_network.client[37] 	downloads[37] 	11992
scalar tree_4_3_u01_r7_network.client[37] 	avg_time[37] 	0.00411774216
scalar tree_4_3_u01_r7_network.client[38] 	hdistance[38] 	2.6551347720211
scalar tree_4_3_u01_r7_network.client[38] 	downloads[38] 	11909
scalar tree_4_3_u01_r7_network.client[38] 	avg_time[38] 	0.004125280454
scalar tree_4_3_u01_r7_network.client[39] 	hdistance[39] 	2.6273456228817
scalar tree_4_3_u01_r7_network.client[39] 	downloads[39] 	12097
scalar tree_4_3_u01_r7_network.client[39] 	avg_time[39] 	0.004078837294
