version 2
run General-404-20160901-07:55:11-8710
attr a 0.9
attr cd tfc
attr configname General
attr cr lru
attr datetime 20160901-07:55:11
attr experiment General
attr fsize 1
attr inifile hw5115/scenario_Y/omnetp.ini
attr iterationvars "$name=tree_4_3, $un=06, $rep=15, $cd=tfc, $cr=lru, $fsize=1, $a=0.9, $sl=nrr, $ttl=1000, $variance=0.05"
attr iterationvars2 "$name=tree_4_3, $un=06, $rep=15, $cd=tfc, $cr=lru, $fsize=1, $a=0.9, $sl=nrr, $ttl=1000, $variance=0.05, $repetition=0"
attr measurement "$name=tree_4_3, $un=06, $rep=15, $cd=tfc, $cr=lru, $fsize=1, $a=0.9, $sl=nrr, $ttl=1000, $variance=0.05"
attr name tree_4_3
attr network networks.${name}_u${un}_r${rep}_network
attr processid 8710
attr rep 15
attr repetition 0
attr replication #0
attr resultdir results
attr runnumber 404
attr seedset 15
attr sl nrr
attr ttl 1000
attr un 06
attr variance 0.05

scalar . 	a 	0.9
scalar . 	fsize 	1
scalar . 	rep 	15
scalar . 	ttl 	1000
scalar . 	un 	06
scalar . 	variance 	0.05
scalar tree_4_3_u06_r15_network.content_distribution 	repo-0 	0
scalar tree_4_3_u06_r15_network.content_distribution 	client-0 	13
scalar tree_4_3_u06_r15_network.content_distribution 	client-1 	14
scalar tree_4_3_u06_r15_network.content_distribution 	client-2 	15
scalar tree_4_3_u06_r15_network.content_distribution 	client-3 	16
scalar tree_4_3_u06_r15_network.content_distribution 	client-4 	17
scalar tree_4_3_u06_r15_network.content_distribution 	client-5 	18
scalar tree_4_3_u06_r15_network.content_distribution 	client-6 	19
scalar tree_4_3_u06_r15_network.content_distribution 	client-7 	20
scalar tree_4_3_u06_r15_network.content_distribution 	client-8 	21
scalar tree_4_3_u06_r15_network.content_distribution 	client-9 	22
scalar tree_4_3_u06_r15_network.content_distribution 	client-10 	23
scalar tree_4_3_u06_r15_network.content_distribution 	client-11 	24
scalar tree_4_3_u06_r15_network.content_distribution 	client-12 	25
scalar tree_4_3_u06_r15_network.content_distribution 	client-13 	26
scalar tree_4_3_u06_r15_network.content_distribution 	client-14 	27
scalar tree_4_3_u06_r15_network.content_distribution 	client-15 	28
scalar tree_4_3_u06_r15_network.content_distribution 	client-16 	29
scalar tree_4_3_u06_r15_network.content_distribution 	client-17 	30
scalar tree_4_3_u06_r15_network.content_distribution 	client-18 	31
scalar tree_4_3_u06_r15_network.content_distribution 	client-19 	32
scalar tree_4_3_u06_r15_network.content_distribution 	client-20 	33
scalar tree_4_3_u06_r15_network.content_distribution 	client-21 	34
scalar tree_4_3_u06_r15_network.content_distribution 	client-22 	35
scalar tree_4_3_u06_r15_network.content_distribution 	client-23 	36
scalar tree_4_3_u06_r15_network.content_distribution 	client-24 	37
scalar tree_4_3_u06_r15_network.content_distribution 	client-25 	38
scalar tree_4_3_u06_r15_network.content_distribution 	client-26 	39
scalar tree_4_3_u06_r15_network.content_distribution 	repo-0_card 	100000
scalar tree_4_3_u06_r15_network.content_distribution 	repo-0_price 	0
scalar tree_4_3_u06_r15_network.statistics 	stabilization_time 	1747.7
scalar tree_4_3_u06_r15_network.statistics 	p_hit 	0.22594355694999
scalar tree_4_3_u06_r15_network.statistics 	interests 	24462.2
scalar tree_4_3_u06_r15_network.statistics 	data 	16362.95
scalar tree_4_3_u06_r15_network.statistics 	hdistance 	2.61159016946
scalar tree_4_3_u06_r15_network.statistics 	avg_time 	0.004040706589
scalar tree_4_3_u06_r15_network.statistics 	downloads 	323967
scalar tree_4_3_u06_r15_network.statistics 	total_cost 	0
scalar tree_4_3_u06_r15_network.statistics 	total_replicas 	100000
scalar tree_4_3_u06_r15_network.statistics 	inner_hit 	0.4088008963876
scalar tree_4_3_u06_r15_network.node[0].core_layer 	interests[0] 	194909
scalar tree_4_3_u06_r15_network.node[0].core_layer 	repo_load[0] 	191529
scalar tree_4_3_u06_r15_network.node[0].core_layer 	data[0] 	0
scalar tree_4_3_u06_r15_network.node[0].core_layer 	repo_int[0] 	191529
scalar tree_4_3_u06_r15_network.node[0].content_store 	p_hit[0] 	0.017341425998799
scalar tree_4_3_u06_r15_network.node[0].content_store 	hits[0] 	3380
scalar tree_4_3_u06_r15_network.node[0].content_store 	misses[0] 	191529
scalar tree_4_3_u06_r15_network.node[0].content_store 	decision_yes[0] 	956
scalar tree_4_3_u06_r15_network.node[0].content_store 	decision_no[0] 	190573
scalar tree_4_3_u06_r15_network.node[0].content_store 	decision_ratio[0] 	0.0049914112223214
scalar tree_4_3_u06_r15_network.node[1].core_layer 	interests[1] 	128996
scalar tree_4_3_u06_r15_network.node[1].core_layer 	data[1] 	125386
scalar tree_4_3_u06_r15_network.node[1].content_store 	p_hit[1] 	0.027969859530528
scalar tree_4_3_u06_r15_network.node[1].content_store 	hits[1] 	3608
scalar tree_4_3_u06_r15_network.node[1].content_store 	misses[1] 	125388
scalar tree_4_3_u06_r15_network.node[1].content_store 	decision_yes[1] 	109
scalar tree_4_3_u06_r15_network.node[1].content_store 	decision_no[1] 	125277
scalar tree_4_3_u06_r15_network.node[1].content_store 	decision_ratio[1] 	0.00086931555357057
scalar tree_4_3_u06_r15_network.node[2].core_layer 	interests[2] 	40161
scalar tree_4_3_u06_r15_network.node[2].core_layer 	data[2] 	37760
scalar tree_4_3_u06_r15_network.node[2].content_store 	p_hit[2] 	0.059784367919126
scalar tree_4_3_u06_r15_network.node[2].content_store 	hits[2] 	2401
scalar tree_4_3_u06_r15_network.node[2].content_store 	misses[2] 	37760
scalar tree_4_3_u06_r15_network.node[2].content_store 	decision_yes[2] 	67
scalar tree_4_3_u06_r15_network.node[2].content_store 	decision_no[2] 	37693
scalar tree_4_3_u06_r15_network.node[2].content_store 	decision_ratio[2] 	0.0017743644067797
scalar tree_4_3_u06_r15_network.node[3].core_layer 	interests[3] 	42113
scalar tree_4_3_u06_r15_network.node[3].core_layer 	data[3] 	38824
scalar tree_4_3_u06_r15_network.node[3].content_store 	p_hit[3] 	0.07809939923539
scalar tree_4_3_u06_r15_network.node[3].content_store 	hits[3] 	3289
scalar tree_4_3_u06_r15_network.node[3].content_store 	misses[3] 	38824
scalar tree_4_3_u06_r15_network.node[3].content_store 	decision_yes[3] 	111
scalar tree_4_3_u06_r15_network.node[3].content_store 	decision_no[3] 	38713
scalar tree_4_3_u06_r15_network.node[3].content_store 	decision_ratio[3] 	0.0028590562538636
scalar tree_4_3_u06_r15_network.node[4].core_layer 	interests[4] 	42262
scalar tree_4_3_u06_r15_network.node[4].core_layer 	data[4] 	39667
scalar tree_4_3_u06_r15_network.node[4].content_store 	p_hit[4] 	0.061402678529175
scalar tree_4_3_u06_r15_network.node[4].content_store 	hits[4] 	2595
scalar tree_4_3_u06_r15_network.node[4].content_store 	misses[4] 	39667
scalar tree_4_3_u06_r15_network.node[4].content_store 	decision_yes[4] 	107
scalar tree_4_3_u06_r15_network.node[4].content_store 	decision_no[4] 	39560
scalar tree_4_3_u06_r15_network.node[4].content_store 	decision_ratio[4] 	0.0026974563238964
scalar tree_4_3_u06_r15_network.node[5].core_layer 	interests[5] 	18426
scalar tree_4_3_u06_r15_network.node[5].core_layer 	data[5] 	16298
scalar tree_4_3_u06_r15_network.node[5].content_store 	p_hit[5] 	0.11548898295886
scalar tree_4_3_u06_r15_network.node[5].content_store 	hits[5] 	2128
scalar tree_4_3_u06_r15_network.node[5].content_store 	misses[5] 	16298
scalar tree_4_3_u06_r15_network.node[5].content_store 	decision_yes[5] 	71
scalar tree_4_3_u06_r15_network.node[5].content_store 	decision_no[5] 	16227
scalar tree_4_3_u06_r15_network.node[5].content_store 	decision_ratio[5] 	0.004356362743895
scalar tree_4_3_u06_r15_network.node[6].core_layer 	interests[6] 	20066
scalar tree_4_3_u06_r15_network.node[6].core_layer 	data[6] 	17292
scalar tree_4_3_u06_r15_network.node[6].content_store 	p_hit[6] 	0.13824379547493
scalar tree_4_3_u06_r15_network.node[6].content_store 	hits[6] 	2774
scalar tree_4_3_u06_r15_network.node[6].content_store 	misses[6] 	17292
scalar tree_4_3_u06_r15_network.node[6].content_store 	decision_yes[6] 	107
scalar tree_4_3_u06_r15_network.node[6].content_store 	decision_no[6] 	17185
scalar tree_4_3_u06_r15_network.node[6].content_store 	decision_ratio[6] 	0.0061878325237104
scalar tree_4_3_u06_r15_network.node[7].core_layer 	interests[7] 	34559
scalar tree_4_3_u06_r15_network.node[7].core_layer 	data[7] 	31978
scalar tree_4_3_u06_r15_network.node[7].content_store 	p_hit[7] 	0.074654937932232
scalar tree_4_3_u06_r15_network.node[7].content_store 	hits[7] 	2580
scalar tree_4_3_u06_r15_network.node[7].content_store 	misses[7] 	31979
scalar tree_4_3_u06_r15_network.node[7].content_store 	decision_yes[7] 	93
scalar tree_4_3_u06_r15_network.node[7].content_store 	decision_no[7] 	31885
scalar tree_4_3_u06_r15_network.node[7].content_store 	decision_ratio[7] 	0.0029082494214773
scalar tree_4_3_u06_r15_network.node[8].core_layer 	interests[8] 	26180
scalar tree_4_3_u06_r15_network.node[8].core_layer 	data[8] 	24217
scalar tree_4_3_u06_r15_network.node[8].content_store 	p_hit[8] 	0.07498090145149
scalar tree_4_3_u06_r15_network.node[8].content_store 	hits[8] 	1963
scalar tree_4_3_u06_r15_network.node[8].content_store 	misses[8] 	24217
scalar tree_4_3_u06_r15_network.node[8].content_store 	decision_yes[8] 	62
scalar tree_4_3_u06_r15_network.node[8].content_store 	decision_no[8] 	24155
scalar tree_4_3_u06_r15_network.node[8].content_store 	decision_ratio[8] 	0.0025601849940125
scalar tree_4_3_u06_r15_network.node[9].core_layer 	interests[9] 	19327
scalar tree_4_3_u06_r15_network.node[9].core_layer 	data[9] 	16995
scalar tree_4_3_u06_r15_network.node[9].content_store 	p_hit[9] 	0.12066021627775
scalar tree_4_3_u06_r15_network.node[9].content_store 	hits[9] 	2332
scalar tree_4_3_u06_r15_network.node[9].content_store 	misses[9] 	16995
scalar tree_4_3_u06_r15_network.node[9].content_store 	decision_yes[9] 	120
scalar tree_4_3_u06_r15_network.node[9].content_store 	decision_no[9] 	16875
scalar tree_4_3_u06_r15_network.node[9].content_store 	decision_ratio[9] 	0.0070609002647838
scalar tree_4_3_u06_r15_network.node[10].core_layer 	interests[10] 	34552
scalar tree_4_3_u06_r15_network.node[10].core_layer 	data[10] 	31843
scalar tree_4_3_u06_r15_network.node[10].content_store 	p_hit[10] 	0.078403565640194
scalar tree_4_3_u06_r15_network.node[10].content_store 	hits[10] 	2709
scalar tree_4_3_u06_r15_network.node[10].content_store 	misses[10] 	31843
scalar tree_4_3_u06_r15_network.node[10].content_store 	decision_yes[10] 	88
scalar tree_4_3_u06_r15_network.node[10].content_store 	decision_no[10] 	31755
scalar tree_4_3_u06_r15_network.node[10].content_store 	decision_ratio[10] 	0.0027635587099205
scalar tree_4_3_u06_r15_network.node[11].core_layer 	interests[11] 	26726
scalar tree_4_3_u06_r15_network.node[11].core_layer 	data[11] 	24265
scalar tree_4_3_u06_r15_network.node[11].content_store 	p_hit[11] 	0.092082616179002
scalar tree_4_3_u06_r15_network.node[11].content_store 	hits[11] 	2461
scalar tree_4_3_u06_r15_network.node[11].content_store 	misses[11] 	24265
scalar tree_4_3_u06_r15_network.node[11].content_store 	decision_yes[11] 	84
scalar tree_4_3_u06_r15_network.node[11].content_store 	decision_no[11] 	24181
scalar tree_4_3_u06_r15_network.node[11].content_store 	decision_ratio[11] 	0.0034617762208943
scalar tree_4_3_u06_r15_network.node[12].core_layer 	interests[12] 	18504
scalar tree_4_3_u06_r15_network.node[12].core_layer 	data[12] 	16452
scalar tree_4_3_u06_r15_network.node[12].content_store 	p_hit[12] 	0.11089494163424
scalar tree_4_3_u06_r15_network.node[12].content_store 	hits[12] 	2052
scalar tree_4_3_u06_r15_network.node[12].content_store 	misses[12] 	16452
scalar tree_4_3_u06_r15_network.node[12].content_store 	decision_yes[12] 	58
scalar tree_4_3_u06_r15_network.node[12].content_store 	decision_no[12] 	16394
scalar tree_4_3_u06_r15_network.node[12].content_store 	decision_ratio[12] 	0.0035254072453197
scalar tree_4_3_u06_r15_network.node[13].core_layer 	interests[13] 	11985
scalar tree_4_3_u06_r15_network.node[13].core_layer 	data[13] 	8493
scalar tree_4_3_u06_r15_network.node[13].content_store 	p_hit[13] 	0.29136420525657
scalar tree_4_3_u06_r15_network.node[13].content_store 	hits[13] 	3492
scalar tree_4_3_u06_r15_network.node[13].content_store 	misses[13] 	8493
scalar tree_4_3_u06_r15_network.node[13].content_store 	decision_yes[13] 	28
scalar tree_4_3_u06_r15_network.node[13].content_store 	decision_no[13] 	8465
scalar tree_4_3_u06_r15_network.node[13].content_store 	decision_ratio[13] 	0.0032968326857412
scalar tree_4_3_u06_r15_network.node[14].core_layer 	interests[14] 	12214
scalar tree_4_3_u06_r15_network.node[14].core_layer 	data[14] 	8572
scalar tree_4_3_u06_r15_network.node[14].content_store 	p_hit[14] 	0.29818241362371
scalar tree_4_3_u06_r15_network.node[14].content_store 	hits[14] 	3642
scalar tree_4_3_u06_r15_network.node[14].content_store 	misses[14] 	8572
scalar tree_4_3_u06_r15_network.node[14].content_store 	decision_yes[14] 	29
scalar tree_4_3_u06_r15_network.node[14].content_store 	decision_no[14] 	8543
scalar tree_4_3_u06_r15_network.node[14].content_store 	decision_ratio[14] 	0.0033831077928138
scalar tree_4_3_u06_r15_network.node[15].core_layer 	interests[15] 	12351
scalar tree_4_3_u06_r15_network.node[15].core_layer 	data[15] 	8619
scalar tree_4_3_u06_r15_network.node[15].content_store 	p_hit[15] 	0.30216176827787
scalar tree_4_3_u06_r15_network.node[15].content_store 	hits[15] 	3732
scalar tree_4_3_u06_r15_network.node[15].content_store 	misses[15] 	8619
scalar tree_4_3_u06_r15_network.node[15].content_store 	decision_yes[15] 	30
scalar tree_4_3_u06_r15_network.node[15].content_store 	decision_no[15] 	8589
scalar tree_4_3_u06_r15_network.node[15].content_store 	decision_ratio[15] 	0.0034806822137139
scalar tree_4_3_u06_r15_network.node[16].core_layer 	interests[16] 	12612
scalar tree_4_3_u06_r15_network.node[16].core_layer 	data[16] 	8755
scalar tree_4_3_u06_r15_network.node[16].content_store 	p_hit[16] 	0.3058198541072
scalar tree_4_3_u06_r15_network.node[16].content_store 	hits[16] 	3857
scalar tree_4_3_u06_r15_network.node[16].content_store 	misses[16] 	8755
scalar tree_4_3_u06_r15_network.node[16].content_store 	decision_yes[16] 	50
scalar tree_4_3_u06_r15_network.node[16].content_store 	decision_no[16] 	8705
scalar tree_4_3_u06_r15_network.node[16].content_store 	decision_ratio[16] 	0.0057110222729869
scalar tree_4_3_u06_r15_network.node[17].core_layer 	interests[17] 	12040
scalar tree_4_3_u06_r15_network.node[17].core_layer 	data[17] 	8592
scalar tree_4_3_u06_r15_network.node[17].content_store 	p_hit[17] 	0.28637873754153
scalar tree_4_3_u06_r15_network.node[17].content_store 	hits[17] 	3448
scalar tree_4_3_u06_r15_network.node[17].content_store 	misses[17] 	8592
scalar tree_4_3_u06_r15_network.node[17].content_store 	decision_yes[17] 	19
scalar tree_4_3_u06_r15_network.node[17].content_store 	decision_no[17] 	8573
scalar tree_4_3_u06_r15_network.node[17].content_store 	decision_ratio[17] 	0.0022113594040968
scalar tree_4_3_u06_r15_network.node[18].core_layer 	interests[18] 	12415
scalar tree_4_3_u06_r15_network.node[18].core_layer 	data[18] 	8741
scalar tree_4_3_u06_r15_network.node[18].content_store 	p_hit[18] 	0.2959323399114
scalar tree_4_3_u06_r15_network.node[18].content_store 	hits[18] 	3674
scalar tree_4_3_u06_r15_network.node[18].content_store 	misses[18] 	8741
scalar tree_4_3_u06_r15_network.node[18].content_store 	decision_yes[18] 	43
scalar tree_4_3_u06_r15_network.node[18].content_store 	decision_no[18] 	8698
scalar tree_4_3_u06_r15_network.node[18].content_store 	decision_ratio[18] 	0.0049193456126301
scalar tree_4_3_u06_r15_network.node[19].core_layer 	interests[19] 	12521
scalar tree_4_3_u06_r15_network.node[19].core_layer 	data[19] 	8613
scalar tree_4_3_u06_r15_network.node[19].content_store 	p_hit[19] 	0.3121156457152
scalar tree_4_3_u06_r15_network.node[19].content_store 	hits[19] 	3908
scalar tree_4_3_u06_r15_network.node[19].content_store 	misses[19] 	8613
scalar tree_4_3_u06_r15_network.node[19].content_store 	decision_yes[19] 	44
scalar tree_4_3_u06_r15_network.node[19].content_store 	decision_no[19] 	8569
scalar tree_4_3_u06_r15_network.node[19].content_store 	decision_ratio[19] 	0.0051085568326948
scalar tree_4_3_u06_r15_network.node[20].core_layer 	interests[20] 	12361
scalar tree_4_3_u06_r15_network.node[20].core_layer 	data[20] 	8759
scalar tree_4_3_u06_r15_network.node[20].content_store 	p_hit[20] 	0.29140037213818
scalar tree_4_3_u06_r15_network.node[20].content_store 	hits[20] 	3602
scalar tree_4_3_u06_r15_network.node[20].content_store 	misses[20] 	8759
scalar tree_4_3_u06_r15_network.node[20].content_store 	decision_yes[20] 	28
scalar tree_4_3_u06_r15_network.node[20].content_store 	decision_no[20] 	8731
scalar tree_4_3_u06_r15_network.node[20].content_store 	decision_ratio[20] 	0.0031967119534193
scalar tree_4_3_u06_r15_network.node[21].core_layer 	interests[21] 	12249
scalar tree_4_3_u06_r15_network.node[21].core_layer 	data[21] 	8715
scalar tree_4_3_u06_r15_network.node[21].content_store 	p_hit[21] 	0.28851334802841
scalar tree_4_3_u06_r15_network.node[21].content_store 	hits[21] 	3534
scalar tree_4_3_u06_r15_network.node[21].content_store 	misses[21] 	8715
scalar tree_4_3_u06_r15_network.node[21].content_store 	decision_yes[21] 	18
scalar tree_4_3_u06_r15_network.node[21].content_store 	decision_no[21] 	8697
scalar tree_4_3_u06_r15_network.node[21].content_store 	decision_ratio[21] 	0.002065404475043
scalar tree_4_3_u06_r15_network.node[22].core_layer 	interests[22] 	12195
scalar tree_4_3_u06_r15_network.node[22].core_layer 	data[22] 	8682
scalar tree_4_3_u06_r15_network.node[22].content_store 	p_hit[22] 	0.28806888068881
scalar tree_4_3_u06_r15_network.node[22].content_store 	hits[22] 	3513
scalar tree_4_3_u06_r15_network.node[22].content_store 	misses[22] 	8682
scalar tree_4_3_u06_r15_network.node[22].content_store 	decision_yes[22] 	26
scalar tree_4_3_u06_r15_network.node[22].content_store 	decision_no[22] 	8656
scalar tree_4_3_u06_r15_network.node[22].content_store 	decision_ratio[22] 	0.0029947016816402
scalar tree_4_3_u06_r15_network.node[23].core_layer 	interests[23] 	12638
scalar tree_4_3_u06_r15_network.node[23].core_layer 	data[23] 	8754
scalar tree_4_3_u06_r15_network.node[23].content_store 	p_hit[23] 	0.30732710871973
scalar tree_4_3_u06_r15_network.node[23].content_store 	hits[23] 	3884
scalar tree_4_3_u06_r15_network.node[23].content_store 	misses[23] 	8754
scalar tree_4_3_u06_r15_network.node[23].content_store 	decision_yes[23] 	54
scalar tree_4_3_u06_r15_network.node[23].content_store 	decision_no[23] 	8700
scalar tree_4_3_u06_r15_network.node[23].content_store 	decision_ratio[23] 	0.0061686086360521
scalar tree_4_3_u06_r15_network.node[24].core_layer 	interests[24] 	12251
scalar tree_4_3_u06_r15_network.node[24].core_layer 	data[24] 	8635
scalar tree_4_3_u06_r15_network.node[24].content_store 	p_hit[24] 	0.29515957880989
scalar tree_4_3_u06_r15_network.node[24].content_store 	hits[24] 	3616
scalar tree_4_3_u06_r15_network.node[24].content_store 	misses[24] 	8635
scalar tree_4_3_u06_r15_network.node[24].content_store 	decision_yes[24] 	19
scalar tree_4_3_u06_r15_network.node[24].content_store 	decision_no[24] 	8616
scalar tree_4_3_u06_r15_network.node[24].content_store 	decision_ratio[24] 	0.0022003474232774
scalar tree_4_3_u06_r15_network.node[25].core_layer 	interests[25] 	12307
scalar tree_4_3_u06_r15_network.node[25].core_layer 	data[25] 	8749
scalar tree_4_3_u06_r15_network.node[25].content_store 	p_hit[25] 	0.28910376208662
scalar tree_4_3_u06_r15_network.node[25].content_store 	hits[25] 	3558
scalar tree_4_3_u06_r15_network.node[25].content_store 	misses[25] 	8749
scalar tree_4_3_u06_r15_network.node[25].content_store 	decision_yes[25] 	32
scalar tree_4_3_u06_r15_network.node[25].content_store 	decision_no[25] 	8717
scalar tree_4_3_u06_r15_network.node[25].content_store 	decision_ratio[25] 	0.0036575608640988
scalar tree_4_3_u06_r15_network.node[26].core_layer 	interests[26] 	12237
scalar tree_4_3_u06_r15_network.node[26].core_layer 	data[26] 	8642
scalar tree_4_3_u06_r15_network.node[26].content_store 	p_hit[26] 	0.29378115551197
scalar tree_4_3_u06_r15_network.node[26].content_store 	hits[26] 	3595
scalar tree_4_3_u06_r15_network.node[26].content_store 	misses[26] 	8642
scalar tree_4_3_u06_r15_network.node[26].content_store 	decision_yes[26] 	24
scalar tree_4_3_u06_r15_network.node[26].content_store 	decision_no[26] 	8618
scalar tree_4_3_u06_r15_network.node[26].content_store 	decision_ratio[26] 	0.0027771349224716
scalar tree_4_3_u06_r15_network.node[27].core_layer 	interests[27] 	12486
scalar tree_4_3_u06_r15_network.node[27].core_layer 	data[27] 	8699
scalar tree_4_3_u06_r15_network.node[27].content_store 	p_hit[27] 	0.30329969565914
scalar tree_4_3_u06_r15_network.node[27].content_store 	hits[27] 	3787
scalar tree_4_3_u06_r15_network.node[27].content_store 	misses[27] 	8699
scalar tree_4_3_u06_r15_network.node[27].content_store 	decision_yes[27] 	59
scalar tree_4_3_u06_r15_network.node[27].content_store 	decision_no[27] 	8640
scalar tree_4_3_u06_r15_network.node[27].content_store 	decision_ratio[27] 	0.0067823887803196
scalar tree_4_3_u06_r15_network.node[28].core_layer 	interests[28] 	12583
scalar tree_4_3_u06_r15_network.node[28].core_layer 	data[28] 	8663
scalar tree_4_3_u06_r15_network.node[28].content_store 	p_hit[28] 	0.31153143129619
scalar tree_4_3_u06_r15_network.node[28].content_store 	hits[28] 	3920
scalar tree_4_3_u06_r15_network.node[28].content_store 	misses[28] 	8663
scalar tree_4_3_u06_r15_network.node[28].content_store 	decision_yes[28] 	39
scalar tree_4_3_u06_r15_network.node[28].content_store 	decision_no[28] 	8624
scalar tree_4_3_u06_r15_network.node[28].content_store 	decision_ratio[28] 	0.0045019046519681
scalar tree_4_3_u06_r15_network.node[29].core_layer 	interests[29] 	12047
scalar tree_4_3_u06_r15_network.node[29].core_layer 	data[29] 	8487
scalar tree_4_3_u06_r15_network.node[29].content_store 	p_hit[29] 	0.29550925541629
scalar tree_4_3_u06_r15_network.node[29].content_store 	hits[29] 	3560
scalar tree_4_3_u06_r15_network.node[29].content_store 	misses[29] 	8487
scalar tree_4_3_u06_r15_network.node[29].content_store 	decision_yes[29] 	26
scalar tree_4_3_u06_r15_network.node[29].content_store 	decision_no[29] 	8461
scalar tree_4_3_u06_r15_network.node[29].content_store 	decision_ratio[29] 	0.0030635088959585
scalar tree_4_3_u06_r15_network.node[30].core_layer 	interests[30] 	12200
scalar tree_4_3_u06_r15_network.node[30].core_layer 	data[30] 	8658
scalar tree_4_3_u06_r15_network.node[30].content_store 	p_hit[30] 	0.29032786885246
scalar tree_4_3_u06_r15_network.node[30].content_store 	hits[30] 	3542
scalar tree_4_3_u06_r15_network.node[30].content_store 	misses[30] 	8658
scalar tree_4_3_u06_r15_network.node[30].content_store 	decision_yes[30] 	33
scalar tree_4_3_u06_r15_network.node[30].content_store 	decision_no[30] 	8625
scalar tree_4_3_u06_r15_network.node[30].content_store 	decision_ratio[30] 	0.0038115038115038
scalar tree_4_3_u06_r15_network.node[31].core_layer 	interests[31] 	12199
scalar tree_4_3_u06_r15_network.node[31].core_layer 	data[31] 	8716
scalar tree_4_3_u06_r15_network.node[31].content_store 	p_hit[31] 	0.28543323223215
scalar tree_4_3_u06_r15_network.node[31].content_store 	hits[31] 	3482
scalar tree_4_3_u06_r15_network.node[31].content_store 	misses[31] 	8717
scalar tree_4_3_u06_r15_network.node[31].content_store 	decision_yes[31] 	25
scalar tree_4_3_u06_r15_network.node[31].content_store 	decision_no[31] 	8691
scalar tree_4_3_u06_r15_network.node[31].content_store 	decision_ratio[31] 	0.0028682882055989
scalar tree_4_3_u06_r15_network.node[32].core_layer 	interests[32] 	12288
scalar tree_4_3_u06_r15_network.node[32].core_layer 	data[32] 	8641
scalar tree_4_3_u06_r15_network.node[32].content_store 	p_hit[32] 	0.29679361979167
scalar tree_4_3_u06_r15_network.node[32].content_store 	hits[32] 	3647
scalar tree_4_3_u06_r15_network.node[32].content_store 	misses[32] 	8641
scalar tree_4_3_u06_r15_network.node[32].content_store 	decision_yes[32] 	52
scalar tree_4_3_u06_r15_network.node[32].content_store 	decision_no[32] 	8589
scalar tree_4_3_u06_r15_network.node[32].content_store 	decision_ratio[32] 	0.0060178220113413
scalar tree_4_3_u06_r15_network.node[33].core_layer 	interests[33] 	12539
scalar tree_4_3_u06_r15_network.node[33].core_layer 	data[33] 	8792
scalar tree_4_3_u06_r15_network.node[33].content_store 	p_hit[33] 	0.29874790653162
scalar tree_4_3_u06_r15_network.node[33].content_store 	hits[33] 	3746
scalar tree_4_3_u06_r15_network.node[33].content_store 	misses[33] 	8793
scalar tree_4_3_u06_r15_network.node[33].content_store 	decision_yes[33] 	41
scalar tree_4_3_u06_r15_network.node[33].content_store 	decision_no[33] 	8751
scalar tree_4_3_u06_r15_network.node[33].content_store 	decision_ratio[33] 	0.004663330300273
scalar tree_4_3_u06_r15_network.node[34].core_layer 	interests[34] 	12441
scalar tree_4_3_u06_r15_network.node[34].core_layer 	data[34] 	8746
scalar tree_4_3_u06_r15_network.node[34].content_store 	p_hit[34] 	0.29700184872599
scalar tree_4_3_u06_r15_network.node[34].content_store 	hits[34] 	3695
scalar tree_4_3_u06_r15_network.node[34].content_store 	misses[34] 	8746
scalar tree_4_3_u06_r15_network.node[34].content_store 	decision_yes[34] 	43
scalar tree_4_3_u06_r15_network.node[34].content_store 	decision_no[34] 	8703
scalar tree_4_3_u06_r15_network.node[34].content_store 	decision_ratio[34] 	0.0049165332723531
scalar tree_4_3_u06_r15_network.node[35].core_layer 	interests[35] 	12096
scalar tree_4_3_u06_r15_network.node[35].core_layer 	data[35] 	8555
scalar tree_4_3_u06_r15_network.node[35].content_store 	p_hit[35] 	0.2927414021164
scalar tree_4_3_u06_r15_network.node[35].content_store 	hits[35] 	3541
scalar tree_4_3_u06_r15_network.node[35].content_store 	misses[35] 	8555
scalar tree_4_3_u06_r15_network.node[35].content_store 	decision_yes[35] 	25
scalar tree_4_3_u06_r15_network.node[35].content_store 	decision_no[35] 	8530
scalar tree_4_3_u06_r15_network.node[35].content_store 	decision_ratio[35] 	0.0029222676797195
scalar tree_4_3_u06_r15_network.node[36].core_layer 	interests[36] 	12108
scalar tree_4_3_u06_r15_network.node[36].core_layer 	data[36] 	8593
scalar tree_4_3_u06_r15_network.node[36].content_store 	p_hit[36] 	0.2903039312851
scalar tree_4_3_u06_r15_network.node[36].content_store 	hits[36] 	3515
scalar tree_4_3_u06_r15_network.node[36].content_store 	misses[36] 	8593
scalar tree_4_3_u06_r15_network.node[36].content_store 	decision_yes[36] 	36
scalar tree_4_3_u06_r15_network.node[36].content_store 	decision_no[36] 	8557
scalar tree_4_3_u06_r15_network.node[36].content_store 	decision_ratio[36] 	0.0041894565343885
scalar tree_4_3_u06_r15_network.node[37].core_layer 	interests[37] 	12074
scalar tree_4_3_u06_r15_network.node[37].core_layer 	data[37] 	8683
scalar tree_4_3_u06_r15_network.node[37].content_store 	p_hit[37] 	0.28076859367235
scalar tree_4_3_u06_r15_network.node[37].content_store 	hits[37] 	3390
scalar tree_4_3_u06_r15_network.node[37].content_store 	misses[37] 	8684
scalar tree_4_3_u06_r15_network.node[37].content_store 	decision_yes[37] 	30
scalar tree_4_3_u06_r15_network.node[37].content_store 	decision_no[37] 	8653
scalar tree_4_3_u06_r15_network.node[37].content_store 	decision_ratio[37] 	0.0034550270643787
scalar tree_4_3_u06_r15_network.node[38].core_layer 	interests[38] 	12319
scalar tree_4_3_u06_r15_network.node[38].core_layer 	data[38] 	8543
scalar tree_4_3_u06_r15_network.node[38].content_store 	p_hit[38] 	0.30651838623265
scalar tree_4_3_u06_r15_network.node[38].content_store 	hits[38] 	3776
scalar tree_4_3_u06_r15_network.node[38].content_store 	misses[38] 	8543
scalar tree_4_3_u06_r15_network.node[38].content_store 	decision_yes[38] 	30
scalar tree_4_3_u06_r15_network.node[38].content_store 	decision_no[38] 	8513
scalar tree_4_3_u06_r15_network.node[38].content_store 	decision_ratio[38] 	0.0035116469624254
scalar tree_4_3_u06_r15_network.node[39].core_layer 	interests[39] 	11951
scalar tree_4_3_u06_r15_network.node[39].core_layer 	data[39] 	8444
scalar tree_4_3_u06_r15_network.node[39].content_store 	p_hit[39] 	0.29344824700862
scalar tree_4_3_u06_r15_network.node[39].content_store 	hits[39] 	3507
scalar tree_4_3_u06_r15_network.node[39].content_store 	misses[39] 	8444
scalar tree_4_3_u06_r15_network.node[39].content_store 	decision_yes[39] 	29
scalar tree_4_3_u06_r15_network.node[39].content_store 	decision_no[39] 	8415
scalar tree_4_3_u06_r15_network.node[39].content_store 	decision_ratio[39] 	0.0034343912837518
scalar tree_4_3_u06_r15_network.client[13] 	hdistance[13] 	2.6416263475087
scalar tree_4_3_u06_r15_network.client[13] 	downloads[13] 	11781
scalar tree_4_3_u06_r15_network.client[13] 	avg_time[13] 	0.004092858463
scalar tree_4_3_u06_r15_network.client[14] 	hdistance[14] 	2.62054018006
scalar tree_4_3_u06_r15_network.client[14] 	downloads[14] 	11996
scalar tree_4_3_u06_r15_network.client[14] 	avg_time[14] 	0.004060183742
scalar tree_4_3_u06_r15_network.client[15] 	hdistance[15] 	2.6005618905966
scalar tree_4_3_u06_r15_network.client[15] 	downloads[15] 	12102
scalar tree_4_3_u06_r15_network.client[15] 	avg_time[15] 	0.004029083095
scalar tree_4_3_u06_r15_network.client[16] 	hdistance[16] 	2.5712513439749
scalar tree_4_3_u06_r15_network.client[16] 	downloads[16] 	12091
scalar tree_4_3_u06_r15_network.client[16] 	avg_time[16] 	0.003980974569
scalar tree_4_3_u06_r15_network.client[17] 	hdistance[17] 	2.6214945424013
scalar tree_4_3_u06_r15_network.client[17] 	downloads[17] 	11910
scalar tree_4_3_u06_r15_network.client[17] 	avg_time[17] 	0.004074388313
scalar tree_4_3_u06_r15_network.client[18] 	hdistance[18] 	2.6054654855424
scalar tree_4_3_u06_r15_network.client[18] 	downloads[18] 	11966
scalar tree_4_3_u06_r15_network.client[18] 	avg_time[18] 	0.004027575164
scalar tree_4_3_u06_r15_network.client[19] 	hdistance[19] 	2.5842414082146
scalar tree_4_3_u06_r15_network.client[19] 	downloads[19] 	11930
scalar tree_4_3_u06_r15_network.client[19] 	avg_time[19] 	0.00399161478
scalar tree_4_3_u06_r15_network.client[20] 	hdistance[20] 	2.6145163947932
scalar tree_4_3_u06_r15_network.client[20] 	downloads[20] 	12138
scalar tree_4_3_u06_r15_network.client[20] 	avg_time[20] 	0.004058326154
scalar tree_4_3_u06_r15_network.client[21] 	hdistance[21] 	2.6301438191038
scalar tree_4_3_u06_r15_network.client[21] 	downloads[21] 	12029
scalar tree_4_3_u06_r15_network.client[21] 	avg_time[21] 	0.004084293294
scalar tree_4_3_u06_r15_network.client[22] 	hdistance[22] 	2.6211552888222
scalar tree_4_3_u06_r15_network.client[22] 	downloads[22] 	11997
scalar tree_4_3_u06_r15_network.client[22] 	avg_time[22] 	0.004074420096
scalar tree_4_3_u06_r15_network.client[23] 	hdistance[23] 	2.5644136337377
scalar tree_4_3_u06_r15_network.client[23] 	downloads[23] 	12117
scalar tree_4_3_u06_r15_network.client[23] 	avg_time[23] 	0.003969461351
scalar tree_4_3_u06_r15_network.client[24] 	hdistance[24] 	2.6055564797871
scalar tree_4_3_u06_r15_network.client[24] 	downloads[24] 	12022
scalar tree_4_3_u06_r15_network.client[24] 	avg_time[24] 	0.004045693649
scalar tree_4_3_u06_r15_network.client[25] 	hdistance[25] 	2.6439730307515
scalar tree_4_3_u06_r15_network.client[25] 	downloads[25] 	12162
scalar tree_4_3_u06_r15_network.client[25] 	avg_time[25] 	0.004081891352
scalar tree_4_3_u06_r15_network.client[26] 	hdistance[26] 	2.6304563492063
scalar tree_4_3_u06_r15_network.client[26] 	downloads[26] 	12096
scalar tree_4_3_u06_r15_network.client[26] 	avg_time[26] 	0.004062000981
scalar tree_4_3_u06_r15_network.client[27] 	hdistance[27] 	2.5965985254692
scalar tree_4_3_u06_r15_network.client[27] 	downloads[27] 	11936
scalar tree_4_3_u06_r15_network.client[27] 	avg_time[27] 	0.004018261067
scalar tree_4_3_u06_r15_network.client[28] 	hdistance[28] 	2.5568295114656
scalar tree_4_3_u06_r15_network.client[28] 	downloads[28] 	12036
scalar tree_4_3_u06_r15_network.client[28] 	avg_time[28] 	0.003954633071
scalar tree_4_3_u06_r15_network.client[29] 	hdistance[29] 	2.5995958915643
scalar tree_4_3_u06_r15_network.client[29] 	downloads[29] 	11878
scalar tree_4_3_u06_r15_network.client[29] 	avg_time[29] 	0.004028621414
scalar tree_4_3_u06_r15_network.client[30] 	hdistance[30] 	2.6256555398319
scalar tree_4_3_u06_r15_network.client[30] 	downloads[30] 	12013
scalar tree_4_3_u06_r15_network.client[30] 	avg_time[30] 	0.004065259598
scalar tree_4_3_u06_r15_network.client[31] 	hdistance[31] 	2.6221449851043
scalar tree_4_3_u06_r15_network.client[31] 	downloads[31] 	12084
scalar tree_4_3_u06_r15_network.client[31] 	avg_time[31] 	0.004067358749
scalar tree_4_3_u06_r15_network.client[32] 	hdistance[32] 	2.5794979079498
scalar tree_4_3_u06_r15_network.client[32] 	downloads[32] 	11950
scalar tree_4_3_u06_r15_network.client[32] 	avg_time[32] 	0.003987426556
scalar tree_4_3_u06_r15_network.client[33] 	hdistance[33] 	2.588768862868
scalar tree_4_3_u06_r15_network.client[33] 	downloads[33] 	12127
scalar tree_4_3_u06_r15_network.client[33] 	avg_time[33] 	0.003999547225
scalar tree_4_3_u06_r15_network.client[34] 	hdistance[34] 	2.6001831349371
scalar tree_4_3_u06_r15_network.client[34] 	downloads[34] 	12013
scalar tree_4_3_u06_r15_network.client[34] 	avg_time[34] 	0.004014481294
scalar tree_4_3_u06_r15_network.client[35] 	hdistance[35] 	2.6473600268614
scalar tree_4_3_u06_r15_network.client[35] 	downloads[35] 	11913
scalar tree_4_3_u06_r15_network.client[35] 	avg_time[35] 	0.004082427976
scalar tree_4_3_u06_r15_network.client[36] 	hdistance[36] 	2.6440989635573
scalar tree_4_3_u06_r15_network.client[36] 	downloads[36] 	11964
scalar tree_4_3_u06_r15_network.client[36] 	avg_time[36] 	0.004078398875
scalar tree_4_3_u06_r15_network.client[37] 	hdistance[37] 	2.668479625136
scalar tree_4_3_u06_r15_network.client[37] 	downloads[37] 	11951
scalar tree_4_3_u06_r15_network.client[37] 	avg_time[37] 	0.004115285758
scalar tree_4_3_u06_r15_network.client[38] 	hdistance[38] 	2.5966887973779
scalar tree_4_3_u06_r15_network.client[38] 	downloads[38] 	11899
scalar tree_4_3_u06_r15_network.client[38] 	avg_time[38] 	0.003997307714
scalar tree_4_3_u06_r15_network.client[39] 	hdistance[39] 	2.6316366087982
scalar tree_4_3_u06_r15_network.client[39] 	downloads[39] 	11866
scalar tree_4_3_u06_r15_network.client[39] 	avg_time[39] 	0.004057303614
