version 2
run General-407-20160901-08:01:13-8710
attr a 0.9
attr cd tfc
attr configname General
attr cr lru
attr datetime 20160901-08:01:13
attr experiment General
attr fsize 1
attr inifile hw5115/scenario_Y/omnetp.ini
attr iterationvars "$name=tree_4_3, $un=06, $rep=16, $cd=tfc, $cr=lru, $fsize=1, $a=0.9, $sl=nrr, $ttl=1000, $variance=0.05"
attr iterationvars2 "$name=tree_4_3, $un=06, $rep=16, $cd=tfc, $cr=lru, $fsize=1, $a=0.9, $sl=nrr, $ttl=1000, $variance=0.05, $repetition=0"
attr measurement "$name=tree_4_3, $un=06, $rep=16, $cd=tfc, $cr=lru, $fsize=1, $a=0.9, $sl=nrr, $ttl=1000, $variance=0.05"
attr name tree_4_3
attr network networks.${name}_u${un}_r${rep}_network
attr processid 8710
attr rep 16
attr repetition 0
attr replication #0
attr resultdir results
attr runnumber 407
attr seedset 16
attr sl nrr
attr ttl 1000
attr un 06
attr variance 0.05

scalar . 	a 	0.9
scalar . 	fsize 	1
scalar . 	rep 	16
scalar . 	ttl 	1000
scalar . 	un 	06
scalar . 	variance 	0.05
scalar tree_4_3_u06_r16_network.content_distribution 	repo-0 	0
scalar tree_4_3_u06_r16_network.content_distribution 	client-0 	13
scalar tree_4_3_u06_r16_network.content_distribution 	client-1 	14
scalar tree_4_3_u06_r16_network.content_distribution 	client-2 	15
scalar tree_4_3_u06_r16_network.content_distribution 	client-3 	16
scalar tree_4_3_u06_r16_network.content_distribution 	client-4 	17
scalar tree_4_3_u06_r16_network.content_distribution 	client-5 	18
scalar tree_4_3_u06_r16_network.content_distribution 	client-6 	19
scalar tree_4_3_u06_r16_network.content_distribution 	client-7 	20
scalar tree_4_3_u06_r16_network.content_distribution 	client-8 	21
scalar tree_4_3_u06_r16_network.content_distribution 	client-9 	22
scalar tree_4_3_u06_r16_network.content_distribution 	client-10 	23
scalar tree_4_3_u06_r16_network.content_distribution 	client-11 	24
scalar tree_4_3_u06_r16_network.content_distribution 	client-12 	25
scalar tree_4_3_u06_r16_network.content_distribution 	client-13 	26
scalar tree_4_3_u06_r16_network.content_distribution 	client-14 	27
scalar tree_4_3_u06_r16_network.content_distribution 	client-15 	28
scalar tree_4_3_u06_r16_network.content_distribution 	client-16 	29
scalar tree_4_3_u06_r16_network.content_distribution 	client-17 	30
scalar tree_4_3_u06_r16_network.content_distribution 	client-18 	31
scalar tree_4_3_u06_r16_network.content_distribution 	client-19 	32
scalar tree_4_3_u06_r16_network.content_distribution 	client-20 	33
scalar tree_4_3_u06_r16_network.content_distribution 	client-21 	34
scalar tree_4_3_u06_r16_network.content_distribution 	client-22 	35
scalar tree_4_3_u06_r16_network.content_distribution 	client-23 	36
scalar tree_4_3_u06_r16_network.content_distribution 	client-24 	37
scalar tree_4_3_u06_r16_network.content_distribution 	client-25 	38
scalar tree_4_3_u06_r16_network.content_distribution 	client-26 	39
scalar tree_4_3_u06_r16_network.content_distribution 	repo-0_card 	100000
scalar tree_4_3_u06_r16_network.content_distribution 	repo-0_price 	0
scalar tree_4_3_u06_r16_network.statistics 	stabilization_time 	1764.4
scalar tree_4_3_u06_r16_network.statistics 	p_hit 	0.23106957122115
scalar tree_4_3_u06_r16_network.statistics 	interests 	24476.4
scalar tree_4_3_u06_r16_network.statistics 	data 	16376.925
scalar tree_4_3_u06_r16_network.statistics 	hdistance 	2.6130321272573
scalar tree_4_3_u06_r16_network.statistics 	avg_time 	0.004043929526
scalar tree_4_3_u06_r16_network.statistics 	downloads 	323989
scalar tree_4_3_u06_r16_network.statistics 	total_cost 	0
scalar tree_4_3_u06_r16_network.statistics 	total_replicas 	100000
scalar tree_4_3_u06_r16_network.statistics 	inner_hit 	0.40899536712666
scalar tree_4_3_u06_r16_network.node[0].core_layer 	interests[0] 	195189
scalar tree_4_3_u06_r16_network.node[0].core_layer 	repo_load[0] 	191479
scalar tree_4_3_u06_r16_network.node[0].core_layer 	data[0] 	0
scalar tree_4_3_u06_r16_network.node[0].core_layer 	repo_int[0] 	191479
scalar tree_4_3_u06_r16_network.node[0].content_store 	p_hit[0] 	0.019007218644493
scalar tree_4_3_u06_r16_network.node[0].content_store 	hits[0] 	3710
scalar tree_4_3_u06_r16_network.node[0].content_store 	misses[0] 	191479
scalar tree_4_3_u06_r16_network.node[0].content_store 	decision_yes[0] 	937
scalar tree_4_3_u06_r16_network.node[0].content_store 	decision_no[0] 	190542
scalar tree_4_3_u06_r16_network.node[0].content_store 	decision_ratio[0] 	0.0048934870142418
scalar tree_4_3_u06_r16_network.node[1].core_layer 	interests[1] 	98368
scalar tree_4_3_u06_r16_network.node[1].core_layer 	data[1] 	95877
scalar tree_4_3_u06_r16_network.node[1].content_store 	p_hit[1] 	0.025302944046845
scalar tree_4_3_u06_r16_network.node[1].content_store 	hits[1] 	2489
scalar tree_4_3_u06_r16_network.node[1].content_store 	misses[1] 	95879
scalar tree_4_3_u06_r16_network.node[1].content_store 	decision_yes[1] 	88
scalar tree_4_3_u06_r16_network.node[1].content_store 	decision_no[1] 	95789
scalar tree_4_3_u06_r16_network.node[1].content_store 	decision_ratio[1] 	0.00091784265256527
scalar tree_4_3_u06_r16_network.node[2].core_layer 	interests[2] 	101480
scalar tree_4_3_u06_r16_network.node[2].core_layer 	data[2] 	97841
scalar tree_4_3_u06_r16_network.node[2].content_store 	p_hit[2] 	0.035869136775719
scalar tree_4_3_u06_r16_network.node[2].content_store 	hits[2] 	3640
scalar tree_4_3_u06_r16_network.node[2].content_store 	misses[2] 	97840
scalar tree_4_3_u06_r16_network.node[2].content_store 	decision_yes[2] 	127
scalar tree_4_3_u06_r16_network.node[2].content_store 	decision_no[2] 	97714
scalar tree_4_3_u06_r16_network.node[2].content_store 	decision_ratio[2] 	0.001298024345622
scalar tree_4_3_u06_r16_network.node[3].core_layer 	interests[3] 	11691
scalar tree_4_3_u06_r16_network.node[3].core_layer 	data[3] 	8612
scalar tree_4_3_u06_r16_network.node[3].content_store 	p_hit[3] 	0.26336498160979
scalar tree_4_3_u06_r16_network.node[3].content_store 	hits[3] 	3079
scalar tree_4_3_u06_r16_network.node[3].content_store 	misses[3] 	8612
scalar tree_4_3_u06_r16_network.node[3].content_store 	decision_yes[3] 	112
scalar tree_4_3_u06_r16_network.node[3].content_store 	decision_no[3] 	8500
scalar tree_4_3_u06_r16_network.node[3].content_store 	decision_ratio[3] 	0.013005109150023
scalar tree_4_3_u06_r16_network.node[4].core_layer 	interests[4] 	33701
scalar tree_4_3_u06_r16_network.node[4].core_layer 	data[4] 	31781
scalar tree_4_3_u06_r16_network.node[4].content_store 	p_hit[4] 	0.056941930506513
scalar tree_4_3_u06_r16_network.node[4].content_store 	hits[4] 	1919
scalar tree_4_3_u06_r16_network.node[4].content_store 	misses[4] 	31782
scalar tree_4_3_u06_r16_network.node[4].content_store 	decision_yes[4] 	57
scalar tree_4_3_u06_r16_network.node[4].content_store 	decision_no[4] 	31724
scalar tree_4_3_u06_r16_network.node[4].content_store 	decision_ratio[4] 	0.0017935244328372
scalar tree_4_3_u06_r16_network.node[5].core_layer 	interests[5] 	27549
scalar tree_4_3_u06_r16_network.node[5].core_layer 	data[5] 	24420
scalar tree_4_3_u06_r16_network.node[5].content_store 	p_hit[5] 	0.11357944027006
scalar tree_4_3_u06_r16_network.node[5].content_store 	hits[5] 	3129
scalar tree_4_3_u06_r16_network.node[5].content_store 	misses[5] 	24420
scalar tree_4_3_u06_r16_network.node[5].content_store 	decision_yes[5] 	81
scalar tree_4_3_u06_r16_network.node[5].content_store 	decision_no[5] 	24339
scalar tree_4_3_u06_r16_network.node[5].content_store 	decision_ratio[5] 	0.0033169533169533
scalar tree_4_3_u06_r16_network.node[6].core_layer 	interests[6] 	19517
scalar tree_4_3_u06_r16_network.node[6].core_layer 	data[6] 	17023
scalar tree_4_3_u06_r16_network.node[6].content_store 	p_hit[6] 	0.12778603268945
scalar tree_4_3_u06_r16_network.node[6].content_store 	hits[6] 	2494
scalar tree_4_3_u06_r16_network.node[6].content_store 	misses[6] 	17023
scalar tree_4_3_u06_r16_network.node[6].content_store 	decision_yes[6] 	97
scalar tree_4_3_u06_r16_network.node[6].content_store 	decision_no[6] 	16926
scalar tree_4_3_u06_r16_network.node[6].content_store 	decision_ratio[6] 	0.0056981730599777
scalar tree_4_3_u06_r16_network.node[7].core_layer 	interests[7] 	26225
scalar tree_4_3_u06_r16_network.node[7].core_layer 	data[7] 	24553
scalar tree_4_3_u06_r16_network.node[7].content_store 	p_hit[7] 	0.063794089609152
scalar tree_4_3_u06_r16_network.node[7].content_store 	hits[7] 	1673
scalar tree_4_3_u06_r16_network.node[7].content_store 	misses[7] 	24552
scalar tree_4_3_u06_r16_network.node[7].content_store 	decision_yes[7] 	61
scalar tree_4_3_u06_r16_network.node[7].content_store 	decision_no[7] 	24492
scalar tree_4_3_u06_r16_network.node[7].content_store 	decision_ratio[7] 	0.0024844214556266
scalar tree_4_3_u06_r16_network.node[8].core_layer 	interests[8] 	33871
scalar tree_4_3_u06_r16_network.node[8].core_layer 	data[8] 	31656
scalar tree_4_3_u06_r16_network.node[8].content_store 	p_hit[8] 	0.065424699595524
scalar tree_4_3_u06_r16_network.node[8].content_store 	hits[8] 	2216
scalar tree_4_3_u06_r16_network.node[8].content_store 	misses[8] 	31655
scalar tree_4_3_u06_r16_network.node[8].content_store 	decision_yes[8] 	70
scalar tree_4_3_u06_r16_network.node[8].content_store 	decision_no[8] 	31586
scalar tree_4_3_u06_r16_network.node[8].content_store 	decision_ratio[8] 	0.002211271165024
scalar tree_4_3_u06_r16_network.node[9].core_layer 	interests[9] 	19645
scalar tree_4_3_u06_r16_network.node[9].core_layer 	data[9] 	17070
scalar tree_4_3_u06_r16_network.node[9].content_store 	p_hit[9] 	0.13107660982438
scalar tree_4_3_u06_r16_network.node[9].content_store 	hits[9] 	2575
scalar tree_4_3_u06_r16_network.node[9].content_store 	misses[9] 	17070
scalar tree_4_3_u06_r16_network.node[9].content_store 	decision_yes[9] 	126
scalar tree_4_3_u06_r16_network.node[9].content_store 	decision_no[9] 	16944
scalar tree_4_3_u06_r16_network.node[9].content_store 	decision_ratio[9] 	0.0073813708260105
scalar tree_4_3_u06_r16_network.node[10].core_layer 	interests[10] 	33833
scalar tree_4_3_u06_r16_network.node[10].core_layer 	data[10] 	31584
scalar tree_4_3_u06_r16_network.node[10].content_store 	p_hit[10] 	0.06641444743298
scalar tree_4_3_u06_r16_network.node[10].content_store 	hits[10] 	2247
scalar tree_4_3_u06_r16_network.node[10].content_store 	misses[10] 	31586
scalar tree_4_3_u06_r16_network.node[10].content_store 	decision_yes[10] 	68
scalar tree_4_3_u06_r16_network.node[10].content_store 	decision_no[10] 	31516
scalar tree_4_3_u06_r16_network.node[10].content_store 	decision_ratio[10] 	0.0021529888551165
scalar tree_4_3_u06_r16_network.node[11].core_layer 	interests[11] 	35614
scalar tree_4_3_u06_r16_network.node[11].core_layer 	data[11] 	32556
scalar tree_4_3_u06_r16_network.node[11].content_store 	p_hit[11] 	0.085921266917504
scalar tree_4_3_u06_r16_network.node[11].content_store 	hits[11] 	3060
scalar tree_4_3_u06_r16_network.node[11].content_store 	misses[11] 	32554
scalar tree_4_3_u06_r16_network.node[11].content_store 	decision_yes[11] 	123
scalar tree_4_3_u06_r16_network.node[11].content_store 	decision_no[11] 	32433
scalar tree_4_3_u06_r16_network.node[11].content_store 	decision_ratio[11] 	0.0037781054183561
scalar tree_4_3_u06_r16_network.node[12].core_layer 	interests[12] 	10770
scalar tree_4_3_u06_r16_network.node[12].core_layer 	data[12] 	8515
scalar tree_4_3_u06_r16_network.node[12].content_store 	p_hit[12] 	0.20937790157846
scalar tree_4_3_u06_r16_network.node[12].content_store 	hits[12] 	2255
scalar tree_4_3_u06_r16_network.node[12].content_store 	misses[12] 	8515
scalar tree_4_3_u06_r16_network.node[12].content_store 	decision_yes[12] 	73
scalar tree_4_3_u06_r16_network.node[12].content_store 	decision_no[12] 	8442
scalar tree_4_3_u06_r16_network.node[12].content_store 	decision_ratio[12] 	0.0085731062830299
scalar tree_4_3_u06_r16_network.node[13].core_layer 	interests[13] 	12232
scalar tree_4_3_u06_r16_network.node[13].core_layer 	data[13] 	8527
scalar tree_4_3_u06_r16_network.node[13].content_store 	p_hit[13] 	0.30289404839765
scalar tree_4_3_u06_r16_network.node[13].content_store 	hits[13] 	3705
scalar tree_4_3_u06_r16_network.node[13].content_store 	misses[13] 	8527
scalar tree_4_3_u06_r16_network.node[13].content_store 	decision_yes[13] 	22
scalar tree_4_3_u06_r16_network.node[13].content_store 	decision_no[13] 	8505
scalar tree_4_3_u06_r16_network.node[13].content_store 	decision_ratio[13] 	0.0025800398733435
scalar tree_4_3_u06_r16_network.node[14].core_layer 	interests[14] 	11974
scalar tree_4_3_u06_r16_network.node[14].core_layer 	data[14] 	8540
scalar tree_4_3_u06_r16_network.node[14].content_store 	p_hit[14] 	0.28678804075497
scalar tree_4_3_u06_r16_network.node[14].content_store 	hits[14] 	3434
scalar tree_4_3_u06_r16_network.node[14].content_store 	misses[14] 	8540
scalar tree_4_3_u06_r16_network.node[14].content_store 	decision_yes[14] 	41
scalar tree_4_3_u06_r16_network.node[14].content_store 	decision_no[14] 	8499
scalar tree_4_3_u06_r16_network.node[14].content_store 	decision_ratio[14] 	0.0048009367681499
scalar tree_4_3_u06_r16_network.node[15].core_layer 	interests[15] 	12205
scalar tree_4_3_u06_r16_network.node[15].core_layer 	data[15] 	8604
scalar tree_4_3_u06_r16_network.node[15].content_store 	p_hit[15] 	0.29504301515772
scalar tree_4_3_u06_r16_network.node[15].content_store 	hits[15] 	3601
scalar tree_4_3_u06_r16_network.node[15].content_store 	misses[15] 	8604
scalar tree_4_3_u06_r16_network.node[15].content_store 	decision_yes[15] 	31
scalar tree_4_3_u06_r16_network.node[15].content_store 	decision_no[15] 	8573
scalar tree_4_3_u06_r16_network.node[15].content_store 	decision_ratio[15] 	0.0036029753602975
scalar tree_4_3_u06_r16_network.node[16].core_layer 	interests[16] 	12342
scalar tree_4_3_u06_r16_network.node[16].core_layer 	data[16] 	8529
scalar tree_4_3_u06_r16_network.node[16].content_store 	p_hit[16] 	0.30894506562956
scalar tree_4_3_u06_r16_network.node[16].content_store 	hits[16] 	3813
scalar tree_4_3_u06_r16_network.node[16].content_store 	misses[16] 	8529
scalar tree_4_3_u06_r16_network.node[16].content_store 	decision_yes[16] 	44
scalar tree_4_3_u06_r16_network.node[16].content_store 	decision_no[16] 	8485
scalar tree_4_3_u06_r16_network.node[16].content_store 	decision_ratio[16] 	0.0051588697385391
scalar tree_4_3_u06_r16_network.node[17].core_layer 	interests[17] 	12124
scalar tree_4_3_u06_r16_network.node[17].core_layer 	data[17] 	8698
scalar tree_4_3_u06_r16_network.node[17].content_store 	p_hit[17] 	0.28258000659848
scalar tree_4_3_u06_r16_network.node[17].content_store 	hits[17] 	3426
scalar tree_4_3_u06_r16_network.node[17].content_store 	misses[17] 	8698
scalar tree_4_3_u06_r16_network.node[17].content_store 	decision_yes[17] 	18
scalar tree_4_3_u06_r16_network.node[17].content_store 	decision_no[17] 	8680
scalar tree_4_3_u06_r16_network.node[17].content_store 	decision_ratio[17] 	0.0020694412508623
scalar tree_4_3_u06_r16_network.node[18].core_layer 	interests[18] 	12617
scalar tree_4_3_u06_r16_network.node[18].core_layer 	data[18] 	8802
scalar tree_4_3_u06_r16_network.node[18].content_store 	p_hit[18] 	0.30236981849885
scalar tree_4_3_u06_r16_network.node[18].content_store 	hits[18] 	3815
scalar tree_4_3_u06_r16_network.node[18].content_store 	misses[18] 	8802
scalar tree_4_3_u06_r16_network.node[18].content_store 	decision_yes[18] 	39
scalar tree_4_3_u06_r16_network.node[18].content_store 	decision_no[18] 	8763
scalar tree_4_3_u06_r16_network.node[18].content_store 	decision_ratio[18] 	0.0044308111792774
scalar tree_4_3_u06_r16_network.node[19].core_layer 	interests[19] 	12308
scalar tree_4_3_u06_r16_network.node[19].core_layer 	data[19] 	8719
scalar tree_4_3_u06_r16_network.node[19].content_store 	p_hit[19] 	0.291598960026
scalar tree_4_3_u06_r16_network.node[19].content_store 	hits[19] 	3589
scalar tree_4_3_u06_r16_network.node[19].content_store 	misses[19] 	8719
scalar tree_4_3_u06_r16_network.node[19].content_store 	decision_yes[19] 	22
scalar tree_4_3_u06_r16_network.node[19].content_store 	decision_no[19] 	8697
scalar tree_4_3_u06_r16_network.node[19].content_store 	decision_ratio[19] 	0.0025232251404978
scalar tree_4_3_u06_r16_network.node[20].core_layer 	interests[20] 	12662
scalar tree_4_3_u06_r16_network.node[20].core_layer 	data[20] 	8886
scalar tree_4_3_u06_r16_network.node[20].content_store 	p_hit[20] 	0.2982151318907
scalar tree_4_3_u06_r16_network.node[20].content_store 	hits[20] 	3776
scalar tree_4_3_u06_r16_network.node[20].content_store 	misses[20] 	8886
scalar tree_4_3_u06_r16_network.node[20].content_store 	decision_yes[20] 	52
scalar tree_4_3_u06_r16_network.node[20].content_store 	decision_no[20] 	8834
scalar tree_4_3_u06_r16_network.node[20].content_store 	decision_ratio[20] 	0.0058519018681071
scalar tree_4_3_u06_r16_network.node[21].core_layer 	interests[21] 	12233
scalar tree_4_3_u06_r16_network.node[21].core_layer 	data[21] 	8654
scalar tree_4_3_u06_r16_network.node[21].content_store 	p_hit[21] 	0.29248753372026
scalar tree_4_3_u06_r16_network.node[21].content_store 	hits[21] 	3578
scalar tree_4_3_u06_r16_network.node[21].content_store 	misses[21] 	8655
scalar tree_4_3_u06_r16_network.node[21].content_store 	decision_yes[21] 	29
scalar tree_4_3_u06_r16_network.node[21].content_store 	decision_no[21] 	8625
scalar tree_4_3_u06_r16_network.node[21].content_store 	decision_ratio[21] 	0.0033510515368616
scalar tree_4_3_u06_r16_network.node[22].core_layer 	interests[22] 	12096
scalar tree_4_3_u06_r16_network.node[22].core_layer 	data[22] 	8535
scalar tree_4_3_u06_r16_network.node[22].content_store 	p_hit[22] 	0.29439484126984
scalar tree_4_3_u06_r16_network.node[22].content_store 	hits[22] 	3561
scalar tree_4_3_u06_r16_network.node[22].content_store 	misses[22] 	8535
scalar tree_4_3_u06_r16_network.node[22].content_store 	decision_yes[22] 	19
scalar tree_4_3_u06_r16_network.node[22].content_store 	decision_no[22] 	8516
scalar tree_4_3_u06_r16_network.node[22].content_store 	decision_ratio[22] 	0.0022261277094318
scalar tree_4_3_u06_r16_network.node[23].core_layer 	interests[23] 	12345
scalar tree_4_3_u06_r16_network.node[23].core_layer 	data[23] 	8700
scalar tree_4_3_u06_r16_network.node[23].content_store 	p_hit[23] 	0.29534224382341
scalar tree_4_3_u06_r16_network.node[23].content_store 	hits[23] 	3646
scalar tree_4_3_u06_r16_network.node[23].content_store 	misses[23] 	8699
scalar tree_4_3_u06_r16_network.node[23].content_store 	decision_yes[23] 	30
scalar tree_4_3_u06_r16_network.node[23].content_store 	decision_no[23] 	8670
scalar tree_4_3_u06_r16_network.node[23].content_store 	decision_ratio[23] 	0.003448275862069
scalar tree_4_3_u06_r16_network.node[24].core_layer 	interests[24] 	12110
scalar tree_4_3_u06_r16_network.node[24].core_layer 	data[24] 	8580
scalar tree_4_3_u06_r16_network.node[24].content_store 	p_hit[24] 	0.29149463253509
scalar tree_4_3_u06_r16_network.node[24].content_store 	hits[24] 	3530
scalar tree_4_3_u06_r16_network.node[24].content_store 	misses[24] 	8580
scalar tree_4_3_u06_r16_network.node[24].content_store 	decision_yes[24] 	23
scalar tree_4_3_u06_r16_network.node[24].content_store 	decision_no[24] 	8557
scalar tree_4_3_u06_r16_network.node[24].content_store 	decision_ratio[24] 	0.0026806526806527
scalar tree_4_3_u06_r16_network.node[25].core_layer 	interests[25] 	12313
scalar tree_4_3_u06_r16_network.node[25].core_layer 	data[25] 	8697
scalar tree_4_3_u06_r16_network.node[25].content_store 	p_hit[25] 	0.29351092341428
scalar tree_4_3_u06_r16_network.node[25].content_store 	hits[25] 	3614
scalar tree_4_3_u06_r16_network.node[25].content_store 	misses[25] 	8699
scalar tree_4_3_u06_r16_network.node[25].content_store 	decision_yes[25] 	25
scalar tree_4_3_u06_r16_network.node[25].content_store 	decision_no[25] 	8672
scalar tree_4_3_u06_r16_network.node[25].content_store 	decision_ratio[25] 	0.0028745544440612
scalar tree_4_3_u06_r16_network.node[26].core_layer 	interests[26] 	11946
scalar tree_4_3_u06_r16_network.node[26].core_layer 	data[26] 	8484
scalar tree_4_3_u06_r16_network.node[26].content_store 	p_hit[26] 	0.28988782856186
scalar tree_4_3_u06_r16_network.node[26].content_store 	hits[26] 	3463
scalar tree_4_3_u06_r16_network.node[26].content_store 	misses[26] 	8483
scalar tree_4_3_u06_r16_network.node[26].content_store 	decision_yes[26] 	27
scalar tree_4_3_u06_r16_network.node[26].content_store 	decision_no[26] 	8457
scalar tree_4_3_u06_r16_network.node[26].content_store 	decision_ratio[26] 	0.0031824611032532
scalar tree_4_3_u06_r16_network.node[27].core_layer 	interests[27] 	12603
scalar tree_4_3_u06_r16_network.node[27].core_layer 	data[27] 	8797
scalar tree_4_3_u06_r16_network.node[27].content_store 	p_hit[27] 	0.30199158930413
scalar tree_4_3_u06_r16_network.node[27].content_store 	hits[27] 	3806
scalar tree_4_3_u06_r16_network.node[27].content_store 	misses[27] 	8797
scalar tree_4_3_u06_r16_network.node[27].content_store 	decision_yes[27] 	32
scalar tree_4_3_u06_r16_network.node[27].content_store 	decision_no[27] 	8765
scalar tree_4_3_u06_r16_network.node[27].content_store 	decision_ratio[27] 	0.0036376037285438
scalar tree_4_3_u06_r16_network.node[28].core_layer 	interests[28] 	12292
scalar tree_4_3_u06_r16_network.node[28].core_layer 	data[28] 	8646
scalar tree_4_3_u06_r16_network.node[28].content_store 	p_hit[28] 	0.29661568499837
scalar tree_4_3_u06_r16_network.node[28].content_store 	hits[28] 	3646
scalar tree_4_3_u06_r16_network.node[28].content_store 	misses[28] 	8646
scalar tree_4_3_u06_r16_network.node[28].content_store 	decision_yes[28] 	16
scalar tree_4_3_u06_r16_network.node[28].content_store 	decision_no[28] 	8630
scalar tree_4_3_u06_r16_network.node[28].content_store 	decision_ratio[28] 	0.0018505667360629
scalar tree_4_3_u06_r16_network.node[29].core_layer 	interests[29] 	12366
scalar tree_4_3_u06_r16_network.node[29].core_layer 	data[29] 	8668
scalar tree_4_3_u06_r16_network.node[29].content_store 	p_hit[29] 	0.29904577066149
scalar tree_4_3_u06_r16_network.node[29].content_store 	hits[29] 	3698
scalar tree_4_3_u06_r16_network.node[29].content_store 	misses[29] 	8668
scalar tree_4_3_u06_r16_network.node[29].content_store 	decision_yes[29] 	40
scalar tree_4_3_u06_r16_network.node[29].content_store 	decision_no[29] 	8628
scalar tree_4_3_u06_r16_network.node[29].content_store 	decision_ratio[29] 	0.0046146746654361
scalar tree_4_3_u06_r16_network.node[30].core_layer 	interests[30] 	12177
scalar tree_4_3_u06_r16_network.node[30].core_layer 	data[30] 	8606
scalar tree_4_3_u06_r16_network.node[30].content_store 	p_hit[30] 	0.29325778106266
scalar tree_4_3_u06_r16_network.node[30].content_store 	hits[30] 	3571
scalar tree_4_3_u06_r16_network.node[30].content_store 	misses[30] 	8606
scalar tree_4_3_u06_r16_network.node[30].content_store 	decision_yes[30] 	28
scalar tree_4_3_u06_r16_network.node[30].content_store 	decision_no[30] 	8578
scalar tree_4_3_u06_r16_network.node[30].content_store 	decision_ratio[30] 	0.0032535440390425
scalar tree_4_3_u06_r16_network.node[31].core_layer 	interests[31] 	12045
scalar tree_4_3_u06_r16_network.node[31].core_layer 	data[31] 	8545
scalar tree_4_3_u06_r16_network.node[31].content_store 	p_hit[31] 	0.29057700290577
scalar tree_4_3_u06_r16_network.node[31].content_store 	hits[31] 	3500
scalar tree_4_3_u06_r16_network.node[31].content_store 	misses[31] 	8545
scalar tree_4_3_u06_r16_network.node[31].content_store 	decision_yes[31] 	15
scalar tree_4_3_u06_r16_network.node[31].content_store 	decision_no[31] 	8530
scalar tree_4_3_u06_r16_network.node[31].content_store 	decision_ratio[31] 	0.0017554125219427
scalar tree_4_3_u06_r16_network.node[32].core_layer 	interests[32] 	12632
scalar tree_4_3_u06_r16_network.node[32].core_layer 	data[32] 	8770
scalar tree_4_3_u06_r16_network.node[32].content_store 	p_hit[32] 	0.30573147561748
scalar tree_4_3_u06_r16_network.node[32].content_store 	hits[32] 	3862
scalar tree_4_3_u06_r16_network.node[32].content_store 	misses[32] 	8770
scalar tree_4_3_u06_r16_network.node[32].content_store 	decision_yes[32] 	27
scalar tree_4_3_u06_r16_network.node[32].content_store 	decision_no[32] 	8743
scalar tree_4_3_u06_r16_network.node[32].content_store 	decision_ratio[32] 	0.003078677309008
scalar tree_4_3_u06_r16_network.node[33].core_layer 	interests[33] 	12377
scalar tree_4_3_u06_r16_network.node[33].core_layer 	data[33] 	8681
scalar tree_4_3_u06_r16_network.node[33].content_store 	p_hit[33] 	0.29861840510625
scalar tree_4_3_u06_r16_network.node[33].content_store 	hits[33] 	3696
scalar tree_4_3_u06_r16_network.node[33].content_store 	misses[33] 	8681
scalar tree_4_3_u06_r16_network.node[33].content_store 	decision_yes[33] 	44
scalar tree_4_3_u06_r16_network.node[33].content_store 	decision_no[33] 	8637
scalar tree_4_3_u06_r16_network.node[33].content_store 	decision_ratio[33] 	0.0050685404907269
scalar tree_4_3_u06_r16_network.node[34].core_layer 	interests[34] 	12374
scalar tree_4_3_u06_r16_network.node[34].core_layer 	data[34] 	8823
scalar tree_4_3_u06_r16_network.node[34].content_store 	p_hit[34] 	0.28705349927267
scalar tree_4_3_u06_r16_network.node[34].content_store 	hits[34] 	3552
scalar tree_4_3_u06_r16_network.node[34].content_store 	misses[34] 	8822
scalar tree_4_3_u06_r16_network.node[34].content_store 	decision_yes[34] 	25
scalar tree_4_3_u06_r16_network.node[34].content_store 	decision_no[34] 	8798
scalar tree_4_3_u06_r16_network.node[34].content_store 	decision_ratio[34] 	0.0028335033435339
scalar tree_4_3_u06_r16_network.node[35].core_layer 	interests[35] 	12064
scalar tree_4_3_u06_r16_network.node[35].core_layer 	data[35] 	8582
scalar tree_4_3_u06_r16_network.node[35].content_store 	p_hit[35] 	0.28879310344828
scalar tree_4_3_u06_r16_network.node[35].content_store 	hits[35] 	3484
scalar tree_4_3_u06_r16_network.node[35].content_store 	misses[35] 	8580
scalar tree_4_3_u06_r16_network.node[35].content_store 	decision_yes[35] 	35
scalar tree_4_3_u06_r16_network.node[35].content_store 	decision_no[35] 	8547
scalar tree_4_3_u06_r16_network.node[35].content_store 	decision_ratio[35] 	0.0040783034257749
scalar tree_4_3_u06_r16_network.node[36].core_layer 	interests[36] 	12348
scalar tree_4_3_u06_r16_network.node[36].core_layer 	data[36] 	8585
scalar tree_4_3_u06_r16_network.node[36].content_store 	p_hit[36] 	0.30474570780693
scalar tree_4_3_u06_r16_network.node[36].content_store 	hits[36] 	3763
scalar tree_4_3_u06_r16_network.node[36].content_store 	misses[36] 	8585
scalar tree_4_3_u06_r16_network.node[36].content_store 	decision_yes[36] 	49
scalar tree_4_3_u06_r16_network.node[36].content_store 	decision_no[36] 	8536
scalar tree_4_3_u06_r16_network.node[36].content_store 	decision_ratio[36] 	0.0057076295864881
scalar tree_4_3_u06_r16_network.node[37].core_layer 	interests[37] 	12190
scalar tree_4_3_u06_r16_network.node[37].core_layer 	data[37] 	8591
scalar tree_4_3_u06_r16_network.node[37].content_store 	p_hit[37] 	0.29524200164069
scalar tree_4_3_u06_r16_network.node[37].content_store 	hits[37] 	3599
scalar tree_4_3_u06_r16_network.node[37].content_store 	misses[37] 	8591
scalar tree_4_3_u06_r16_network.node[37].content_store 	decision_yes[37] 	37
scalar tree_4_3_u06_r16_network.node[37].content_store 	decision_no[37] 	8554
scalar tree_4_3_u06_r16_network.node[37].content_store 	decision_ratio[37] 	0.0043068327319288
scalar tree_4_3_u06_r16_network.node[38].core_layer 	interests[38] 	12480
scalar tree_4_3_u06_r16_network.node[38].core_layer 	data[38] 	8719
scalar tree_4_3_u06_r16_network.node[38].content_store 	p_hit[38] 	0.30136217948718
scalar tree_4_3_u06_r16_network.node[38].content_store 	hits[38] 	3761
scalar tree_4_3_u06_r16_network.node[38].content_store 	misses[38] 	8719
scalar tree_4_3_u06_r16_network.node[38].content_store 	decision_yes[38] 	41
scalar tree_4_3_u06_r16_network.node[38].content_store 	decision_no[38] 	8678
scalar tree_4_3_u06_r16_network.node[38].content_store 	decision_ratio[38] 	0.0047023741254731
scalar tree_4_3_u06_r16_network.node[39].core_layer 	interests[39] 	12148
scalar tree_4_3_u06_r16_network.node[39].core_layer 	data[39] 	8621
scalar tree_4_3_u06_r16_network.node[39].content_store 	p_hit[39] 	0.29033585775436
scalar tree_4_3_u06_r16_network.node[39].content_store 	hits[39] 	3527
scalar tree_4_3_u06_r16_network.node[39].content_store 	misses[39] 	8621
scalar tree_4_3_u06_r16_network.node[39].content_store 	decision_yes[39] 	29
scalar tree_4_3_u06_r16_network.node[39].content_store 	decision_no[39] 	8592
scalar tree_4_3_u06_r16_network.node[39].content_store 	decision_ratio[39] 	0.0033638789003596
scalar tree_4_3_u06_r16_network.client[13] 	hdistance[13] 	2.6080397845006
scalar tree_4_3_u06_r16_network.client[13] 	downloads[13] 	12065
scalar tree_4_3_u06_r16_network.client[13] 	avg_time[13] 	0.004039883644
scalar tree_4_3_u06_r16_network.client[14] 	hdistance[14] 	2.65719134493
scalar tree_4_3_u06_r16_network.client[14] 	downloads[14] 	11785
scalar tree_4_3_u06_r16_network.client[14] 	avg_time[14] 	0.004114888872
scalar tree_4_3_u06_r16_network.client[15] 	hdistance[15] 	2.6484147457768
scalar tree_4_3_u06_r16_network.client[15] 	downloads[15] 	12017
scalar tree_4_3_u06_r16_network.client[15] 	avg_time[15] 	0.004089536797
scalar tree_4_3_u06_r16_network.client[16] 	hdistance[16] 	2.5878803331634
scalar tree_4_3_u06_r16_network.client[16] 	downloads[16] 	11766
scalar tree_4_3_u06_r16_network.client[16] 	avg_time[16] 	0.004003736671
scalar tree_4_3_u06_r16_network.client[17] 	hdistance[17] 	2.6476389469285
scalar tree_4_3_u06_r16_network.client[17] 	downloads[17] 	11965
scalar tree_4_3_u06_r16_network.client[17] 	avg_time[17] 	0.0041101516
scalar tree_4_3_u06_r16_network.client[18] 	hdistance[18] 	2.5686890395107
scalar tree_4_3_u06_r16_network.client[18] 	downloads[18] 	12098
scalar tree_4_3_u06_r16_network.client[18] 	avg_time[18] 	0.003974868838
scalar tree_4_3_u06_r16_network.client[19] 	hdistance[19] 	2.6309030654515
scalar tree_4_3_u06_r16_network.client[19] 	downloads[19] 	12070
scalar tree_4_3_u06_r16_network.client[19] 	avg_time[19] 	0.004073733526
scalar tree_4_3_u06_r16_network.client[20] 	hdistance[20] 	2.5684253578732
scalar tree_4_3_u06_r16_network.client[20] 	downloads[20] 	12225
scalar tree_4_3_u06_r16_network.client[20] 	avg_time[20] 	0.003976275043
scalar tree_4_3_u06_r16_network.client[21] 	hdistance[21] 	2.6023726563796
scalar tree_4_3_u06_r16_network.client[21] 	downloads[21] 	12054
scalar tree_4_3_u06_r16_network.client[21] 	avg_time[21] 	0.004035669785
scalar tree_4_3_u06_r16_network.client[22] 	hdistance[22] 	2.6452937725254
scalar tree_4_3_u06_r16_network.client[22] 	downloads[22] 	11931
scalar tree_4_3_u06_r16_network.client[22] 	avg_time[22] 	0.004102586906
scalar tree_4_3_u06_r16_network.client[23] 	hdistance[23] 	2.6168415874057
scalar tree_4_3_u06_r16_network.client[23] 	downloads[23] 	12196
scalar tree_4_3_u06_r16_network.client[23] 	avg_time[23] 	0.004059852613
scalar tree_4_3_u06_r16_network.client[24] 	hdistance[24] 	2.6466744848383
scalar tree_4_3_u06_r16_network.client[24] 	downloads[24] 	11938
scalar tree_4_3_u06_r16_network.client[24] 	avg_time[24] 	0.00410654753
scalar tree_4_3_u06_r16_network.client[25] 	hdistance[25] 	2.6382382052128
scalar tree_4_3_u06_r16_network.client[25] 	downloads[25] 	12124
scalar tree_4_3_u06_r16_network.client[25] 	avg_time[25] 	0.004082683869
scalar tree_4_3_u06_r16_network.client[26] 	hdistance[26] 	2.642148129295
scalar tree_4_3_u06_r16_network.client[26] 	downloads[26] 	11787
scalar tree_4_3_u06_r16_network.client[26] 	avg_time[26] 	0.004086363416
scalar tree_4_3_u06_r16_network.client[27] 	hdistance[27] 	2.6111387782205
scalar tree_4_3_u06_r16_network.client[27] 	downloads[27] 	12048
scalar tree_4_3_u06_r16_network.client[27] 	avg_time[27] 	0.004028549429
scalar tree_4_3_u06_r16_network.client[28] 	hdistance[28] 	2.6035052910053
scalar tree_4_3_u06_r16_network.client[28] 	downloads[28] 	12096
scalar tree_4_3_u06_r16_network.client[28] 	avg_time[28] 	0.004029558177
scalar tree_4_3_u06_r16_network.client[29] 	hdistance[29] 	2.5982000168223
scalar tree_4_3_u06_r16_network.client[29] 	downloads[29] 	11889
scalar tree_4_3_u06_r16_network.client[29] 	avg_time[29] 	0.004017323984
scalar tree_4_3_u06_r16_network.client[30] 	hdistance[30] 	2.6121222240775
scalar tree_4_3_u06_r16_network.client[30] 	downloads[30] 	11978
scalar tree_4_3_u06_r16_network.client[30] 	avg_time[30] 	0.004047250305
scalar tree_4_3_u06_r16_network.client[31] 	hdistance[31] 	2.6051329363415
scalar tree_4_3_u06_r16_network.client[31] 	downloads[31] 	11923
scalar tree_4_3_u06_r16_network.client[31] 	avg_time[31] 	0.004045455368
scalar tree_4_3_u06_r16_network.client[32] 	hdistance[32] 	2.5911015190504
scalar tree_4_3_u06_r16_network.client[32] 	downloads[32] 	12047
scalar tree_4_3_u06_r16_network.client[32] 	avg_time[32] 	0.004006231143
scalar tree_4_3_u06_r16_network.client[33] 	hdistance[33] 	2.5756368766077
scalar tree_4_3_u06_r16_network.client[33] 	downloads[33] 	12051
scalar tree_4_3_u06_r16_network.client[33] 	avg_time[33] 	0.003977536041
scalar tree_4_3_u06_r16_network.client[34] 	hdistance[34] 	2.6472235953205
scalar tree_4_3_u06_r16_network.client[34] 	downloads[34] 	12138
scalar tree_4_3_u06_r16_network.client[34] 	avg_time[34] 	0.004097706654
scalar tree_4_3_u06_r16_network.client[35] 	hdistance[35] 	2.6144314254404
scalar tree_4_3_u06_r16_network.client[35] 	downloads[35] 	11863
scalar tree_4_3_u06_r16_network.client[35] 	avg_time[35] 	0.004053440535
scalar tree_4_3_u06_r16_network.client[36] 	hdistance[36] 	2.5708420611646
scalar tree_4_3_u06_r16_network.client[36] 	downloads[36] 	11935
scalar tree_4_3_u06_r16_network.client[36] 	avg_time[36] 	0.003966817276
scalar tree_4_3_u06_r16_network.client[37] 	hdistance[37] 	2.606868618682
scalar tree_4_3_u06_r16_network.client[37] 	downloads[37] 	11851
scalar tree_4_3_u06_r16_network.client[37] 	avg_time[37] 	0.004018560883
scalar tree_4_3_u06_r16_network.client[38] 	hdistance[38] 	2.5767892644135
scalar tree_4_3_u06_r16_network.client[38] 	downloads[38] 	12072
scalar tree_4_3_u06_r16_network.client[38] 	avg_time[38] 	0.003976305782
scalar tree_4_3_u06_r16_network.client[39] 	hdistance[39] 	2.6301233750104
scalar tree_4_3_u06_r16_network.client[39] 	downloads[39] 	12077
scalar tree_4_3_u06_r16_network.client[39] 	avg_time[39] 	0.004064582539
