version 2
run General-395-20160901-07:36:47-8710
attr a 0.9
attr cd tfc
attr configname General
attr cr lru
attr datetime 20160901-07:36:47
attr experiment General
attr fsize 1
attr inifile hw5115/scenario_Y/omnetp.ini
attr iterationvars "$name=tree_4_3, $un=06, $rep=12, $cd=tfc, $cr=lru, $fsize=1, $a=0.9, $sl=nrr, $ttl=1000, $variance=0.05"
attr iterationvars2 "$name=tree_4_3, $un=06, $rep=12, $cd=tfc, $cr=lru, $fsize=1, $a=0.9, $sl=nrr, $ttl=1000, $variance=0.05, $repetition=0"
attr measurement "$name=tree_4_3, $un=06, $rep=12, $cd=tfc, $cr=lru, $fsize=1, $a=0.9, $sl=nrr, $ttl=1000, $variance=0.05"
attr name tree_4_3
attr network networks.${name}_u${un}_r${rep}_network
attr processid 8710
attr rep 12
attr repetition 0
attr replication #0
attr resultdir results
attr runnumber 395
attr seedset 12
attr sl nrr
attr ttl 1000
attr un 06
attr variance 0.05

scalar . 	a 	0.9
scalar . 	fsize 	1
scalar . 	rep 	12
scalar . 	ttl 	1000
scalar . 	un 	06
scalar . 	variance 	0.05
scalar tree_4_3_u06_r12_network.content_distribution 	repo-0 	0
scalar tree_4_3_u06_r12_network.content_distribution 	client-0 	13
scalar tree_4_3_u06_r12_network.content_distribution 	client-1 	14
scalar tree_4_3_u06_r12_network.content_distribution 	client-2 	15
scalar tree_4_3_u06_r12_network.content_distribution 	client-3 	16
scalar tree_4_3_u06_r12_network.content_distribution 	client-4 	17
scalar tree_4_3_u06_r12_network.content_distribution 	client-5 	18
scalar tree_4_3_u06_r12_network.content_distribution 	client-6 	19
scalar tree_4_3_u06_r12_network.content_distribution 	client-7 	20
scalar tree_4_3_u06_r12_network.content_distribution 	client-8 	21
scalar tree_4_3_u06_r12_network.content_distribution 	client-9 	22
scalar tree_4_3_u06_r12_network.content_distribution 	client-10 	23
scalar tree_4_3_u06_r12_network.content_distribution 	client-11 	24
scalar tree_4_3_u06_r12_network.content_distribution 	client-12 	25
scalar tree_4_3_u06_r12_network.content_distribution 	client-13 	26
scalar tree_4_3_u06_r12_network.content_distribution 	client-14 	27
scalar tree_4_3_u06_r12_network.content_distribution 	client-15 	28
scalar tree_4_3_u06_r12_network.content_distribution 	client-16 	29
scalar tree_4_3_u06_r12_network.content_distribution 	client-17 	30
scalar tree_4_3_u06_r12_network.content_distribution 	client-18 	31
scalar tree_4_3_u06_r12_network.content_distribution 	client-19 	32
scalar tree_4_3_u06_r12_network.content_distribution 	client-20 	33
scalar tree_4_3_u06_r12_network.content_distribution 	client-21 	34
scalar tree_4_3_u06_r12_network.content_distribution 	client-22 	35
scalar tree_4_3_u06_r12_network.content_distribution 	client-23 	36
scalar tree_4_3_u06_r12_network.content_distribution 	client-24 	37
scalar tree_4_3_u06_r12_network.content_distribution 	client-25 	38
scalar tree_4_3_u06_r12_network.content_distribution 	client-26 	39
scalar tree_4_3_u06_r12_network.content_distribution 	repo-0_card 	100000
scalar tree_4_3_u06_r12_network.content_distribution 	repo-0_price 	0
scalar tree_4_3_u06_r12_network.statistics 	stabilization_time 	2021.9
scalar tree_4_3_u06_r12_network.statistics 	p_hit 	0.22659437378671
scalar tree_4_3_u06_r12_network.statistics 	interests 	24473.45
scalar tree_4_3_u06_r12_network.statistics 	data 	16380.125
scalar tree_4_3_u06_r12_network.statistics 	hdistance 	2.6190072685664
scalar tree_4_3_u06_r12_network.statistics 	avg_time 	0.004047966181
scalar tree_4_3_u06_r12_network.statistics 	downloads 	323723
scalar tree_4_3_u06_r12_network.statistics 	total_cost 	0
scalar tree_4_3_u06_r12_network.statistics 	total_replicas 	100000
scalar tree_4_3_u06_r12_network.statistics 	inner_hit 	0.40502837302262
scalar tree_4_3_u06_r12_network.node[0].core_layer 	interests[0] 	196224
scalar tree_4_3_u06_r12_network.node[0].core_layer 	repo_load[0] 	192606
scalar tree_4_3_u06_r12_network.node[0].core_layer 	data[0] 	0
scalar tree_4_3_u06_r12_network.node[0].core_layer 	repo_int[0] 	192606
scalar tree_4_3_u06_r12_network.node[0].content_store 	p_hit[0] 	0.018438111545988
scalar tree_4_3_u06_r12_network.node[0].content_store 	hits[0] 	3618
scalar tree_4_3_u06_r12_network.node[0].content_store 	misses[0] 	192606
scalar tree_4_3_u06_r12_network.node[0].content_store 	decision_yes[0] 	1025
scalar tree_4_3_u06_r12_network.node[0].content_store 	decision_no[0] 	191581
scalar tree_4_3_u06_r12_network.node[0].content_store 	decision_ratio[0] 	0.0053217449092967
scalar tree_4_3_u06_r12_network.node[1].core_layer 	interests[1] 	99323
scalar tree_4_3_u06_r12_network.node[1].core_layer 	data[1] 	96609
scalar tree_4_3_u06_r12_network.node[1].content_store 	p_hit[1] 	0.027335058344996
scalar tree_4_3_u06_r12_network.node[1].content_store 	hits[1] 	2715
scalar tree_4_3_u06_r12_network.node[1].content_store 	misses[1] 	96608
scalar tree_4_3_u06_r12_network.node[1].content_store 	decision_yes[1] 	104
scalar tree_4_3_u06_r12_network.node[1].content_store 	decision_no[1] 	96505
scalar tree_4_3_u06_r12_network.node[1].content_store 	decision_ratio[1] 	0.0010765042594375
scalar tree_4_3_u06_r12_network.node[2].core_layer 	interests[2] 	93881
scalar tree_4_3_u06_r12_network.node[2].core_layer 	data[2] 	90319
scalar tree_4_3_u06_r12_network.node[2].content_store 	p_hit[2] 	0.037930997752474
scalar tree_4_3_u06_r12_network.node[2].content_store 	hits[2] 	3561
scalar tree_4_3_u06_r12_network.node[2].content_store 	misses[2] 	90320
scalar tree_4_3_u06_r12_network.node[2].content_store 	decision_yes[2] 	125
scalar tree_4_3_u06_r12_network.node[2].content_store 	decision_no[2] 	90194
scalar tree_4_3_u06_r12_network.node[2].content_store 	decision_ratio[2] 	0.0013839834364862
scalar tree_4_3_u06_r12_network.node[3].core_layer 	interests[3] 	17271
scalar tree_4_3_u06_r12_network.node[3].core_layer 	data[3] 	15552
scalar tree_4_3_u06_r12_network.node[3].content_store 	p_hit[3] 	0.099531005732152
scalar tree_4_3_u06_r12_network.node[3].content_store 	hits[3] 	1719
scalar tree_4_3_u06_r12_network.node[3].content_store 	misses[3] 	15552
scalar tree_4_3_u06_r12_network.node[3].content_store 	decision_yes[3] 	42
scalar tree_4_3_u06_r12_network.node[3].content_store 	decision_no[3] 	15510
scalar tree_4_3_u06_r12_network.node[3].content_store 	decision_ratio[3] 	0.0027006172839506
scalar tree_4_3_u06_r12_network.node[4].core_layer 	interests[4] 	34018
scalar tree_4_3_u06_r12_network.node[4].core_layer 	data[4] 	31950
scalar tree_4_3_u06_r12_network.node[4].content_store 	p_hit[4] 	0.060673760950085
scalar tree_4_3_u06_r12_network.node[4].content_store 	hits[4] 	2064
scalar tree_4_3_u06_r12_network.node[4].content_store 	misses[4] 	31954
scalar tree_4_3_u06_r12_network.node[4].content_store 	decision_yes[4] 	56
scalar tree_4_3_u06_r12_network.node[4].content_store 	decision_no[4] 	31894
scalar tree_4_3_u06_r12_network.node[4].content_store 	decision_ratio[4] 	0.0017527386541471
scalar tree_4_3_u06_r12_network.node[5].core_layer 	interests[5] 	27891
scalar tree_4_3_u06_r12_network.node[5].core_layer 	data[5] 	24808
scalar tree_4_3_u06_r12_network.node[5].content_store 	p_hit[5] 	0.11057330321609
scalar tree_4_3_u06_r12_network.node[5].content_store 	hits[5] 	3084
scalar tree_4_3_u06_r12_network.node[5].content_store 	misses[5] 	24807
scalar tree_4_3_u06_r12_network.node[5].content_store 	decision_yes[5] 	102
scalar tree_4_3_u06_r12_network.node[5].content_store 	decision_no[5] 	24706
scalar tree_4_3_u06_r12_network.node[5].content_store 	decision_ratio[5] 	0.004111576910674
scalar tree_4_3_u06_r12_network.node[6].core_layer 	interests[6] 	18716
scalar tree_4_3_u06_r12_network.node[6].core_layer 	data[6] 	16587
scalar tree_4_3_u06_r12_network.node[6].content_store 	p_hit[6] 	0.11375293866211
scalar tree_4_3_u06_r12_network.node[6].content_store 	hits[6] 	2129
scalar tree_4_3_u06_r12_network.node[6].content_store 	misses[6] 	16587
scalar tree_4_3_u06_r12_network.node[6].content_store 	decision_yes[6] 	75
scalar tree_4_3_u06_r12_network.node[6].content_store 	decision_no[6] 	16512
scalar tree_4_3_u06_r12_network.node[6].content_store 	decision_ratio[6] 	0.0045216133116296
scalar tree_4_3_u06_r12_network.node[7].core_layer 	interests[7] 	42480
scalar tree_4_3_u06_r12_network.node[7].core_layer 	data[7] 	39973
scalar tree_4_3_u06_r12_network.node[7].content_store 	p_hit[7] 	0.058992467043314
scalar tree_4_3_u06_r12_network.node[7].content_store 	hits[7] 	2506
scalar tree_4_3_u06_r12_network.node[7].content_store 	misses[7] 	39974
scalar tree_4_3_u06_r12_network.node[7].content_store 	decision_yes[7] 	78
scalar tree_4_3_u06_r12_network.node[7].content_store 	decision_no[7] 	39895
scalar tree_4_3_u06_r12_network.node[7].content_store 	decision_ratio[7] 	0.0019513171390689
scalar tree_4_3_u06_r12_network.node[8].core_layer 	interests[8] 	26663
scalar tree_4_3_u06_r12_network.node[8].core_layer 	data[8] 	24230
scalar tree_4_3_u06_r12_network.node[8].content_store 	p_hit[8] 	0.091250046881446
scalar tree_4_3_u06_r12_network.node[8].content_store 	hits[8] 	2433
scalar tree_4_3_u06_r12_network.node[8].content_store 	misses[8] 	24230
scalar tree_4_3_u06_r12_network.node[8].content_store 	decision_yes[8] 	78
scalar tree_4_3_u06_r12_network.node[8].content_store 	decision_no[8] 	24152
scalar tree_4_3_u06_r12_network.node[8].content_store 	decision_ratio[8] 	0.0032191498142798
scalar tree_4_3_u06_r12_network.node[9].core_layer 	interests[9] 	10287
scalar tree_4_3_u06_r12_network.node[9].core_layer 	data[9] 	8391
scalar tree_4_3_u06_r12_network.node[9].content_store 	p_hit[9] 	0.18431029454652
scalar tree_4_3_u06_r12_network.node[9].content_store 	hits[9] 	1896
scalar tree_4_3_u06_r12_network.node[9].content_store 	misses[9] 	8391
scalar tree_4_3_u06_r12_network.node[9].content_store 	decision_yes[9] 	41
scalar tree_4_3_u06_r12_network.node[9].content_store 	decision_no[9] 	8350
scalar tree_4_3_u06_r12_network.node[9].content_store 	decision_ratio[9] 	0.004886187581933
scalar tree_4_3_u06_r12_network.node[10].core_layer 	interests[10] 	34552
scalar tree_4_3_u06_r12_network.node[10].core_layer 	data[10] 	32008
scalar tree_4_3_u06_r12_network.node[10].content_store 	p_hit[10] 	0.073628154665432
scalar tree_4_3_u06_r12_network.node[10].content_store 	hits[10] 	2544
scalar tree_4_3_u06_r12_network.node[10].content_store 	misses[10] 	32008
scalar tree_4_3_u06_r12_network.node[10].content_store 	decision_yes[10] 	85
scalar tree_4_3_u06_r12_network.node[10].content_store 	decision_no[10] 	31923
scalar tree_4_3_u06_r12_network.node[10].content_store 	decision_ratio[10] 	0.0026555861034741
scalar tree_4_3_u06_r12_network.node[11].core_layer 	interests[11] 	26718
scalar tree_4_3_u06_r12_network.node[11].core_layer 	data[11] 	24239
scalar tree_4_3_u06_r12_network.node[11].content_store 	p_hit[11] 	0.092783891009806
scalar tree_4_3_u06_r12_network.node[11].content_store 	hits[11] 	2479
scalar tree_4_3_u06_r12_network.node[11].content_store 	misses[11] 	24239
scalar tree_4_3_u06_r12_network.node[11].content_store 	decision_yes[11] 	92
scalar tree_4_3_u06_r12_network.node[11].content_store 	decision_no[11] 	24147
scalar tree_4_3_u06_r12_network.node[11].content_store 	decision_ratio[11] 	0.0037955361194769
scalar tree_4_3_u06_r12_network.node[12].core_layer 	interests[12] 	18880
scalar tree_4_3_u06_r12_network.node[12].core_layer 	data[12] 	16592
scalar tree_4_3_u06_r12_network.node[12].content_store 	p_hit[12] 	0.12118644067797
scalar tree_4_3_u06_r12_network.node[12].content_store 	hits[12] 	2288
scalar tree_4_3_u06_r12_network.node[12].content_store 	misses[12] 	16592
scalar tree_4_3_u06_r12_network.node[12].content_store 	decision_yes[12] 	92
scalar tree_4_3_u06_r12_network.node[12].content_store 	decision_no[12] 	16500
scalar tree_4_3_u06_r12_network.node[12].content_store 	decision_ratio[12] 	0.0055448408871745
scalar tree_4_3_u06_r12_network.node[13].core_layer 	interests[13] 	12394
scalar tree_4_3_u06_r12_network.node[13].core_layer 	data[13] 	8763
scalar tree_4_3_u06_r12_network.node[13].content_store 	p_hit[13] 	0.2929643375827
scalar tree_4_3_u06_r12_network.node[13].content_store 	hits[13] 	3631
scalar tree_4_3_u06_r12_network.node[13].content_store 	misses[13] 	8763
scalar tree_4_3_u06_r12_network.node[13].content_store 	decision_yes[13] 	27
scalar tree_4_3_u06_r12_network.node[13].content_store 	decision_no[13] 	8736
scalar tree_4_3_u06_r12_network.node[13].content_store 	decision_ratio[13] 	0.0030811365970558
scalar tree_4_3_u06_r12_network.node[14].core_layer 	interests[14] 	12208
scalar tree_4_3_u06_r12_network.node[14].core_layer 	data[14] 	8660
scalar tree_4_3_u06_r12_network.node[14].content_store 	p_hit[14] 	0.29054718217562
scalar tree_4_3_u06_r12_network.node[14].content_store 	hits[14] 	3547
scalar tree_4_3_u06_r12_network.node[14].content_store 	misses[14] 	8661
scalar tree_4_3_u06_r12_network.node[14].content_store 	decision_yes[14] 	20
scalar tree_4_3_u06_r12_network.node[14].content_store 	decision_no[14] 	8640
scalar tree_4_3_u06_r12_network.node[14].content_store 	decision_ratio[14] 	0.0023094688221709
scalar tree_4_3_u06_r12_network.node[15].core_layer 	interests[15] 	12412
scalar tree_4_3_u06_r12_network.node[15].core_layer 	data[15] 	8663
scalar tree_4_3_u06_r12_network.node[15].content_store 	p_hit[15] 	0.30196583951015
scalar tree_4_3_u06_r12_network.node[15].content_store 	hits[15] 	3748
scalar tree_4_3_u06_r12_network.node[15].content_store 	misses[15] 	8664
scalar tree_4_3_u06_r12_network.node[15].content_store 	decision_yes[15] 	44
scalar tree_4_3_u06_r12_network.node[15].content_store 	decision_no[15] 	8619
scalar tree_4_3_u06_r12_network.node[15].content_store 	decision_ratio[15] 	0.005079071915041
scalar tree_4_3_u06_r12_network.node[16].core_layer 	interests[16] 	12633
scalar tree_4_3_u06_r12_network.node[16].core_layer 	data[16] 	8838
scalar tree_4_3_u06_r12_network.node[16].content_store 	p_hit[16] 	0.30040370458323
scalar tree_4_3_u06_r12_network.node[16].content_store 	hits[16] 	3795
scalar tree_4_3_u06_r12_network.node[16].content_store 	misses[16] 	8838
scalar tree_4_3_u06_r12_network.node[16].content_store 	decision_yes[16] 	39
scalar tree_4_3_u06_r12_network.node[16].content_store 	decision_no[16] 	8799
scalar tree_4_3_u06_r12_network.node[16].content_store 	decision_ratio[16] 	0.0044127630685675
scalar tree_4_3_u06_r12_network.node[17].core_layer 	interests[17] 	12116
scalar tree_4_3_u06_r12_network.node[17].core_layer 	data[17] 	8518
scalar tree_4_3_u06_r12_network.node[17].content_store 	p_hit[17] 	0.29704522944866
scalar tree_4_3_u06_r12_network.node[17].content_store 	hits[17] 	3599
scalar tree_4_3_u06_r12_network.node[17].content_store 	misses[17] 	8517
scalar tree_4_3_u06_r12_network.node[17].content_store 	decision_yes[17] 	19
scalar tree_4_3_u06_r12_network.node[17].content_store 	decision_no[17] 	8499
scalar tree_4_3_u06_r12_network.node[17].content_store 	decision_ratio[17] 	0.0022305705564687
scalar tree_4_3_u06_r12_network.node[18].core_layer 	interests[18] 	12331
scalar tree_4_3_u06_r12_network.node[18].core_layer 	data[18] 	8711
scalar tree_4_3_u06_r12_network.node[18].content_store 	p_hit[18] 	0.29356905360474
scalar tree_4_3_u06_r12_network.node[18].content_store 	hits[18] 	3620
scalar tree_4_3_u06_r12_network.node[18].content_store 	misses[18] 	8711
scalar tree_4_3_u06_r12_network.node[18].content_store 	decision_yes[18] 	24
scalar tree_4_3_u06_r12_network.node[18].content_store 	decision_no[18] 	8687
scalar tree_4_3_u06_r12_network.node[18].content_store 	decision_ratio[18] 	0.0027551371828722
scalar tree_4_3_u06_r12_network.node[19].core_layer 	interests[19] 	12100
scalar tree_4_3_u06_r12_network.node[19].core_layer 	data[19] 	8626
scalar tree_4_3_u06_r12_network.node[19].content_store 	p_hit[19] 	0.28710743801653
scalar tree_4_3_u06_r12_network.node[19].content_store 	hits[19] 	3474
scalar tree_4_3_u06_r12_network.node[19].content_store 	misses[19] 	8626
scalar tree_4_3_u06_r12_network.node[19].content_store 	decision_yes[19] 	32
scalar tree_4_3_u06_r12_network.node[19].content_store 	decision_no[19] 	8594
scalar tree_4_3_u06_r12_network.node[19].content_store 	decision_ratio[19] 	0.0037097148156735
scalar tree_4_3_u06_r12_network.node[20].core_layer 	interests[20] 	12568
scalar tree_4_3_u06_r12_network.node[20].core_layer 	data[20] 	8806
scalar tree_4_3_u06_r12_network.node[20].content_store 	p_hit[20] 	0.2993316359007
scalar tree_4_3_u06_r12_network.node[20].content_store 	hits[20] 	3762
scalar tree_4_3_u06_r12_network.node[20].content_store 	misses[20] 	8806
scalar tree_4_3_u06_r12_network.node[20].content_store 	decision_yes[20] 	50
scalar tree_4_3_u06_r12_network.node[20].content_store 	decision_no[20] 	8756
scalar tree_4_3_u06_r12_network.node[20].content_store 	decision_ratio[20] 	0.0056779468544174
scalar tree_4_3_u06_r12_network.node[21].core_layer 	interests[21] 	12150
scalar tree_4_3_u06_r12_network.node[21].core_layer 	data[21] 	8553
scalar tree_4_3_u06_r12_network.node[21].content_store 	p_hit[21] 	0.29604938271605
scalar tree_4_3_u06_r12_network.node[21].content_store 	hits[21] 	3597
scalar tree_4_3_u06_r12_network.node[21].content_store 	misses[21] 	8553
scalar tree_4_3_u06_r12_network.node[21].content_store 	decision_yes[21] 	30
scalar tree_4_3_u06_r12_network.node[21].content_store 	decision_no[21] 	8523
scalar tree_4_3_u06_r12_network.node[21].content_store 	decision_ratio[21] 	0.0035075412136093
scalar tree_4_3_u06_r12_network.node[22].core_layer 	interests[22] 	12085
scalar tree_4_3_u06_r12_network.node[22].core_layer 	data[22] 	8519
scalar tree_4_3_u06_r12_network.node[22].content_store 	p_hit[22] 	0.29499379395945
scalar tree_4_3_u06_r12_network.node[22].content_store 	hits[22] 	3565
scalar tree_4_3_u06_r12_network.node[22].content_store 	misses[22] 	8520
scalar tree_4_3_u06_r12_network.node[22].content_store 	decision_yes[22] 	25
scalar tree_4_3_u06_r12_network.node[22].content_store 	decision_no[22] 	8494
scalar tree_4_3_u06_r12_network.node[22].content_store 	decision_ratio[22] 	0.0029346167390539
scalar tree_4_3_u06_r12_network.node[23].core_layer 	interests[23] 	12448
scalar tree_4_3_u06_r12_network.node[23].core_layer 	data[23] 	8723
scalar tree_4_3_u06_r12_network.node[23].content_store 	p_hit[23] 	0.29924485861183
scalar tree_4_3_u06_r12_network.node[23].content_store 	hits[23] 	3725
scalar tree_4_3_u06_r12_network.node[23].content_store 	misses[23] 	8723
scalar tree_4_3_u06_r12_network.node[23].content_store 	decision_yes[23] 	47
scalar tree_4_3_u06_r12_network.node[23].content_store 	decision_no[23] 	8676
scalar tree_4_3_u06_r12_network.node[23].content_store 	decision_ratio[23] 	0.0053880545683824
scalar tree_4_3_u06_r12_network.node[24].core_layer 	interests[24] 	12149
scalar tree_4_3_u06_r12_network.node[24].core_layer 	data[24] 	8628
scalar tree_4_3_u06_r12_network.node[24].content_store 	p_hit[24] 	0.28981809202403
scalar tree_4_3_u06_r12_network.node[24].content_store 	hits[24] 	3521
scalar tree_4_3_u06_r12_network.node[24].content_store 	misses[24] 	8628
scalar tree_4_3_u06_r12_network.node[24].content_store 	decision_yes[24] 	26
scalar tree_4_3_u06_r12_network.node[24].content_store 	decision_no[24] 	8602
scalar tree_4_3_u06_r12_network.node[24].content_store 	decision_ratio[24] 	0.0030134445989801
scalar tree_4_3_u06_r12_network.node[25].core_layer 	interests[25] 	12466
scalar tree_4_3_u06_r12_network.node[25].core_layer 	data[25] 	8743
scalar tree_4_3_u06_r12_network.node[25].content_store 	p_hit[25] 	0.29865233434943
scalar tree_4_3_u06_r12_network.node[25].content_store 	hits[25] 	3723
scalar tree_4_3_u06_r12_network.node[25].content_store 	misses[25] 	8743
scalar tree_4_3_u06_r12_network.node[25].content_store 	decision_yes[25] 	33
scalar tree_4_3_u06_r12_network.node[25].content_store 	decision_no[25] 	8710
scalar tree_4_3_u06_r12_network.node[25].content_store 	decision_ratio[25] 	0.0037744481299325
scalar tree_4_3_u06_r12_network.node[26].core_layer 	interests[26] 	12183
scalar tree_4_3_u06_r12_network.node[26].core_layer 	data[26] 	8646
scalar tree_4_3_u06_r12_network.node[26].content_store 	p_hit[26] 	0.29032258064516
scalar tree_4_3_u06_r12_network.node[26].content_store 	hits[26] 	3537
scalar tree_4_3_u06_r12_network.node[26].content_store 	misses[26] 	8646
scalar tree_4_3_u06_r12_network.node[26].content_store 	decision_yes[26] 	20
scalar tree_4_3_u06_r12_network.node[26].content_store 	decision_no[26] 	8626
scalar tree_4_3_u06_r12_network.node[26].content_store 	decision_ratio[26] 	0.0023132084200786
scalar tree_4_3_u06_r12_network.node[27].core_layer 	interests[27] 	12342
scalar tree_4_3_u06_r12_network.node[27].core_layer 	data[27] 	8687
scalar tree_4_3_u06_r12_network.node[27].content_store 	p_hit[27] 	0.29614325068871
scalar tree_4_3_u06_r12_network.node[27].content_store 	hits[27] 	3655
scalar tree_4_3_u06_r12_network.node[27].content_store 	misses[27] 	8687
scalar tree_4_3_u06_r12_network.node[27].content_store 	decision_yes[27] 	46
scalar tree_4_3_u06_r12_network.node[27].content_store 	decision_no[27] 	8641
scalar tree_4_3_u06_r12_network.node[27].content_store 	decision_ratio[27] 	0.0052952687924485
scalar tree_4_3_u06_r12_network.node[28].core_layer 	interests[28] 	12561
scalar tree_4_3_u06_r12_network.node[28].core_layer 	data[28] 	8762
scalar tree_4_3_u06_r12_network.node[28].content_store 	p_hit[28] 	0.30244407292413
scalar tree_4_3_u06_r12_network.node[28].content_store 	hits[28] 	3799
scalar tree_4_3_u06_r12_network.node[28].content_store 	misses[28] 	8762
scalar tree_4_3_u06_r12_network.node[28].content_store 	decision_yes[28] 	51
scalar tree_4_3_u06_r12_network.node[28].content_store 	decision_no[28] 	8711
scalar tree_4_3_u06_r12_network.node[28].content_store 	decision_ratio[28] 	0.0058205889066423
scalar tree_4_3_u06_r12_network.node[29].core_layer 	interests[29] 	12291
scalar tree_4_3_u06_r12_network.node[29].core_layer 	data[29] 	8647
scalar tree_4_3_u06_r12_network.node[29].content_store 	p_hit[29] 	0.29647709706289
scalar tree_4_3_u06_r12_network.node[29].content_store 	hits[29] 	3644
scalar tree_4_3_u06_r12_network.node[29].content_store 	misses[29] 	8647
scalar tree_4_3_u06_r12_network.node[29].content_store 	decision_yes[29] 	50
scalar tree_4_3_u06_r12_network.node[29].content_store 	decision_no[29] 	8597
scalar tree_4_3_u06_r12_network.node[29].content_store 	decision_ratio[29] 	0.0057823522608997
scalar tree_4_3_u06_r12_network.node[30].core_layer 	interests[30] 	11969
scalar tree_4_3_u06_r12_network.node[30].core_layer 	data[30] 	8573
scalar tree_4_3_u06_r12_network.node[30].content_store 	p_hit[30] 	0.28373297685688
scalar tree_4_3_u06_r12_network.node[30].content_store 	hits[30] 	3396
scalar tree_4_3_u06_r12_network.node[30].content_store 	misses[30] 	8573
scalar tree_4_3_u06_r12_network.node[30].content_store 	decision_yes[30] 	23
scalar tree_4_3_u06_r12_network.node[30].content_store 	decision_no[30] 	8550
scalar tree_4_3_u06_r12_network.node[30].content_store 	decision_ratio[30] 	0.0026828414790622
scalar tree_4_3_u06_r12_network.node[31].core_layer 	interests[31] 	12345
scalar tree_4_3_u06_r12_network.node[31].core_layer 	data[31] 	8727
scalar tree_4_3_u06_r12_network.node[31].content_store 	p_hit[31] 	0.29307411907655
scalar tree_4_3_u06_r12_network.node[31].content_store 	hits[31] 	3618
scalar tree_4_3_u06_r12_network.node[31].content_store 	misses[31] 	8727
scalar tree_4_3_u06_r12_network.node[31].content_store 	decision_yes[31] 	22
scalar tree_4_3_u06_r12_network.node[31].content_store 	decision_no[31] 	8705
scalar tree_4_3_u06_r12_network.node[31].content_store 	decision_ratio[31] 	0.0025209121118368
scalar tree_4_3_u06_r12_network.node[32].core_layer 	interests[32] 	12191
scalar tree_4_3_u06_r12_network.node[32].core_layer 	data[32] 	8718
scalar tree_4_3_u06_r12_network.node[32].content_store 	p_hit[32] 	0.28488229021409
scalar tree_4_3_u06_r12_network.node[32].content_store 	hits[32] 	3473
scalar tree_4_3_u06_r12_network.node[32].content_store 	misses[32] 	8718
scalar tree_4_3_u06_r12_network.node[32].content_store 	decision_yes[32] 	29
scalar tree_4_3_u06_r12_network.node[32].content_store 	decision_no[32] 	8689
scalar tree_4_3_u06_r12_network.node[32].content_store 	decision_ratio[32] 	0.0033264510208763
scalar tree_4_3_u06_r12_network.node[33].core_layer 	interests[33] 	12484
scalar tree_4_3_u06_r12_network.node[33].core_layer 	data[33] 	8644
scalar tree_4_3_u06_r12_network.node[33].content_store 	p_hit[33] 	0.30759371996155
scalar tree_4_3_u06_r12_network.node[33].content_store 	hits[33] 	3840
scalar tree_4_3_u06_r12_network.node[33].content_store 	misses[33] 	8644
scalar tree_4_3_u06_r12_network.node[33].content_store 	decision_yes[33] 	48
scalar tree_4_3_u06_r12_network.node[33].content_store 	decision_no[33] 	8596
scalar tree_4_3_u06_r12_network.node[33].content_store 	decision_ratio[33] 	0.005552984729292
scalar tree_4_3_u06_r12_network.node[34].core_layer 	interests[34] 	12594
scalar tree_4_3_u06_r12_network.node[34].core_layer 	data[34] 	8698
scalar tree_4_3_u06_r12_network.node[34].content_store 	p_hit[34] 	0.30935366047324
scalar tree_4_3_u06_r12_network.node[34].content_store 	hits[34] 	3896
scalar tree_4_3_u06_r12_network.node[34].content_store 	misses[34] 	8698
scalar tree_4_3_u06_r12_network.node[34].content_store 	decision_yes[34] 	29
scalar tree_4_3_u06_r12_network.node[34].content_store 	decision_no[34] 	8669
scalar tree_4_3_u06_r12_network.node[34].content_store 	decision_ratio[34] 	0.0033340997930559
scalar tree_4_3_u06_r12_network.node[35].core_layer 	interests[35] 	12096
scalar tree_4_3_u06_r12_network.node[35].core_layer 	data[35] 	8597
scalar tree_4_3_u06_r12_network.node[35].content_store 	p_hit[35] 	0.28926917989418
scalar tree_4_3_u06_r12_network.node[35].content_store 	hits[35] 	3499
scalar tree_4_3_u06_r12_network.node[35].content_store 	misses[35] 	8597
scalar tree_4_3_u06_r12_network.node[35].content_store 	decision_yes[35] 	22
scalar tree_4_3_u06_r12_network.node[35].content_store 	decision_no[35] 	8575
scalar tree_4_3_u06_r12_network.node[35].content_store 	decision_ratio[35] 	0.002559032220542
scalar tree_4_3_u06_r12_network.node[36].core_layer 	interests[36] 	12454
scalar tree_4_3_u06_r12_network.node[36].core_layer 	data[36] 	8676
scalar tree_4_3_u06_r12_network.node[36].content_store 	p_hit[36] 	0.30319576039827
scalar tree_4_3_u06_r12_network.node[36].content_store 	hits[36] 	3776
scalar tree_4_3_u06_r12_network.node[36].content_store 	misses[36] 	8678
scalar tree_4_3_u06_r12_network.node[36].content_store 	decision_yes[36] 	38
scalar tree_4_3_u06_r12_network.node[36].content_store 	decision_no[36] 	8638
scalar tree_4_3_u06_r12_network.node[36].content_store 	decision_ratio[36] 	0.0043798985707699
scalar tree_4_3_u06_r12_network.node[37].core_layer 	interests[37] 	11982
scalar tree_4_3_u06_r12_network.node[37].core_layer 	data[37] 	8522
scalar tree_4_3_u06_r12_network.node[37].content_store 	p_hit[37] 	0.28876648305792
scalar tree_4_3_u06_r12_network.node[37].content_store 	hits[37] 	3460
scalar tree_4_3_u06_r12_network.node[37].content_store 	misses[37] 	8522
scalar tree_4_3_u06_r12_network.node[37].content_store 	decision_yes[37] 	28
scalar tree_4_3_u06_r12_network.node[37].content_store 	decision_no[37] 	8494
scalar tree_4_3_u06_r12_network.node[37].content_store 	decision_ratio[37] 	0.0032856137057029
scalar tree_4_3_u06_r12_network.node[38].core_layer 	interests[38] 	12426
scalar tree_4_3_u06_r12_network.node[38].core_layer 	data[38] 	8735
scalar tree_4_3_u06_r12_network.node[38].content_store 	p_hit[38] 	0.29695799130855
scalar tree_4_3_u06_r12_network.node[38].content_store 	hits[38] 	3690
scalar tree_4_3_u06_r12_network.node[38].content_store 	misses[38] 	8736
scalar tree_4_3_u06_r12_network.node[38].content_store 	decision_yes[38] 	40
scalar tree_4_3_u06_r12_network.node[38].content_store 	decision_no[38] 	8695
scalar tree_4_3_u06_r12_network.node[38].content_store 	decision_ratio[38] 	0.0045792787635947
scalar tree_4_3_u06_r12_network.node[39].core_layer 	interests[39] 	12056
scalar tree_4_3_u06_r12_network.node[39].core_layer 	data[39] 	8564
scalar tree_4_3_u06_r12_network.node[39].content_store 	p_hit[39] 	0.28948241539482
scalar tree_4_3_u06_r12_network.node[39].content_store 	hits[39] 	3490
scalar tree_4_3_u06_r12_network.node[39].content_store 	misses[39] 	8566
scalar tree_4_3_u06_r12_network.node[39].content_store 	decision_yes[39] 	33
scalar tree_4_3_u06_r12_network.node[39].content_store 	decision_no[39] 	8531
scalar tree_4_3_u06_r12_network.node[39].content_store 	decision_ratio[39] 	0.0038533395609528
scalar tree_4_3_u06_r12_network.client[13] 	hdistance[13] 	2.6400131083074
scalar tree_4_3_u06_r12_network.client[13] 	downloads[13] 	12206
scalar tree_4_3_u06_r12_network.client[13] 	avg_time[13] 	0.004079410385
scalar tree_4_3_u06_r12_network.client[14] 	hdistance[14] 	2.6572828433815
scalar tree_4_3_u06_r12_network.client[14] 	downloads[14] 	12042
scalar tree_4_3_u06_r12_network.client[14] 	avg_time[14] 	0.004099980398
scalar tree_4_3_u06_r12_network.client[15] 	hdistance[15] 	2.6244846445099
scalar tree_4_3_u06_r12_network.client[15] 	downloads[15] 	11885
scalar tree_4_3_u06_r12_network.client[15] 	avg_time[15] 	0.004046669507
scalar tree_4_3_u06_r12_network.client[16] 	hdistance[16] 	2.5829141584893
scalar tree_4_3_u06_r12_network.client[16] 	downloads[16] 	12127
scalar tree_4_3_u06_r12_network.client[16] 	avg_time[16] 	0.004002140918
scalar tree_4_3_u06_r12_network.client[17] 	hdistance[17] 	2.6073205701273
scalar tree_4_3_u06_r12_network.client[17] 	downloads[17] 	11857
scalar tree_4_3_u06_r12_network.client[17] 	avg_time[17] 	0.004048407294
scalar tree_4_3_u06_r12_network.client[18] 	hdistance[18] 	2.6073558648111
scalar tree_4_3_u06_r12_network.client[18] 	downloads[18] 	12072
scalar tree_4_3_u06_r12_network.client[18] 	avg_time[18] 	0.004053509232
scalar tree_4_3_u06_r12_network.client[19] 	hdistance[19] 	2.6462721497827
scalar tree_4_3_u06_r12_network.client[19] 	downloads[19] 	11964
scalar tree_4_3_u06_r12_network.client[19] 	avg_time[19] 	0.004098626231
scalar tree_4_3_u06_r12_network.client[20] 	hdistance[20] 	2.5880152925532
scalar tree_4_3_u06_r12_network.client[20] 	downloads[20] 	12032
scalar tree_4_3_u06_r12_network.client[20] 	avg_time[20] 	0.004010302822
scalar tree_4_3_u06_r12_network.client[21] 	hdistance[21] 	2.6227784730914
scalar tree_4_3_u06_r12_network.client[21] 	downloads[21] 	11985
scalar tree_4_3_u06_r12_network.client[21] 	avg_time[21] 	0.004054398346
scalar tree_4_3_u06_r12_network.client[22] 	hdistance[22] 	2.6180286436394
scalar tree_4_3_u06_r12_network.client[22] 	downloads[22] 	11870
scalar tree_4_3_u06_r12_network.client[22] 	avg_time[22] 	0.004055430881
scalar tree_4_3_u06_r12_network.client[23] 	hdistance[23] 	2.619612429001
scalar tree_4_3_u06_r12_network.client[23] 	downloads[23] 	11972
scalar tree_4_3_u06_r12_network.client[23] 	avg_time[23] 	0.004034991328
scalar tree_4_3_u06_r12_network.client[24] 	hdistance[24] 	2.6493277310924
scalar tree_4_3_u06_r12_network.client[24] 	downloads[24] 	11900
scalar tree_4_3_u06_r12_network.client[24] 	avg_time[24] 	0.004097307929
scalar tree_4_3_u06_r12_network.client[25] 	hdistance[25] 	2.6311393250919
scalar tree_4_3_u06_r12_network.client[25] 	downloads[25] 	11972
scalar tree_4_3_u06_r12_network.client[25] 	avg_time[25] 	0.004056963284
scalar tree_4_3_u06_r12_network.client[26] 	hdistance[26] 	2.635781418947
scalar tree_4_3_u06_r12_network.client[26] 	downloads[26] 	12023
scalar tree_4_3_u06_r12_network.client[26] 	avg_time[26] 	0.0040771824
scalar tree_4_3_u06_r12_network.client[27] 	hdistance[27] 	2.6151598630938
scalar tree_4_3_u06_r12_network.client[27] 	downloads[27] 	11979
scalar tree_4_3_u06_r12_network.client[27] 	avg_time[27] 	0.004032554018
scalar tree_4_3_u06_r12_network.client[28] 	hdistance[28] 	2.6016347424042
scalar tree_4_3_u06_r12_network.client[28] 	downloads[28] 	12112
scalar tree_4_3_u06_r12_network.client[28] 	avg_time[28] 	0.004014528035
scalar tree_4_3_u06_r12_network.client[29] 	hdistance[29] 	2.5980277452783
scalar tree_4_3_u06_r12_network.client[29] 	downloads[29] 	11966
scalar tree_4_3_u06_r12_network.client[29] 	avg_time[29] 	0.004005011207
scalar tree_4_3_u06_r12_network.client[30] 	hdistance[30] 	2.6583354371792
scalar tree_4_3_u06_r12_network.client[30] 	downloads[30] 	11883
scalar tree_4_3_u06_r12_network.client[30] 	avg_time[30] 	0.004107545611
scalar tree_4_3_u06_r12_network.client[31] 	hdistance[31] 	2.6152644131919
scalar tree_4_3_u06_r12_network.client[31] 	downloads[31] 	12159
scalar tree_4_3_u06_r12_network.client[31] 	avg_time[31] 	0.004049343117
scalar tree_4_3_u06_r12_network.client[32] 	hdistance[32] 	2.6383653044203
scalar tree_4_3_u06_r12_network.client[32] 	downloads[32] 	11990
scalar tree_4_3_u06_r12_network.client[32] 	avg_time[32] 	0.004086402308
scalar tree_4_3_u06_r12_network.client[33] 	hdistance[33] 	2.5858864892014
scalar tree_4_3_u06_r12_network.client[33] 	downloads[33] 	11946
scalar tree_4_3_u06_r12_network.client[33] 	avg_time[33] 	0.003993467671
scalar tree_4_3_u06_r12_network.client[34] 	hdistance[34] 	2.566785507006
scalar tree_4_3_u06_r12_network.client[34] 	downloads[34] 	12061
scalar tree_4_3_u06_r12_network.client[34] 	avg_time[34] 	0.003968656324
scalar tree_4_3_u06_r12_network.client[35] 	hdistance[35] 	2.6117105813467
scalar tree_4_3_u06_r12_network.client[35] 	downloads[35] 	11955
scalar tree_4_3_u06_r12_network.client[35] 	avg_time[35] 	0.004049850638
scalar tree_4_3_u06_r12_network.client[36] 	hdistance[36] 	2.5833402748855
scalar tree_4_3_u06_r12_network.client[36] 	downloads[36] 	12005
scalar tree_4_3_u06_r12_network.client[36] 	avg_time[36] 	0.003989352335
scalar tree_4_3_u06_r12_network.client[37] 	hdistance[37] 	2.65350135318
scalar tree_4_3_u06_r12_network.client[37] 	downloads[37] 	11824
scalar tree_4_3_u06_r12_network.client[37] 	avg_time[37] 	0.004082710201
scalar tree_4_3_u06_r12_network.client[38] 	hdistance[38] 	2.6064564439637
scalar tree_4_3_u06_r12_network.client[38] 	downloads[38] 	12019
scalar tree_4_3_u06_r12_network.client[38] 	avg_time[38] 	0.004020464581
scalar tree_4_3_u06_r12_network.client[39] 	hdistance[39] 	2.6484014433163
scalar tree_4_3_u06_r12_network.client[39] 	downloads[39] 	11917
scalar tree_4_3_u06_r12_network.client[39] 	avg_time[39] 	0.004079879908
