version 2
run General-389-20160901-07:24:30-8710
attr a 0.9
attr cd tfc
attr configname General
attr cr lru
attr datetime 20160901-07:24:30
attr experiment General
attr fsize 1
attr inifile hw5115/scenario_Y/omnetp.ini
attr iterationvars "$name=tree_4_3, $un=06, $rep=10, $cd=tfc, $cr=lru, $fsize=1, $a=0.9, $sl=nrr, $ttl=1000, $variance=0.05"
attr iterationvars2 "$name=tree_4_3, $un=06, $rep=10, $cd=tfc, $cr=lru, $fsize=1, $a=0.9, $sl=nrr, $ttl=1000, $variance=0.05, $repetition=0"
attr measurement "$name=tree_4_3, $un=06, $rep=10, $cd=tfc, $cr=lru, $fsize=1, $a=0.9, $sl=nrr, $ttl=1000, $variance=0.05"
attr name tree_4_3
attr network networks.${name}_u${un}_r${rep}_network
attr processid 8710
attr rep 10
attr repetition 0
attr replication #0
attr resultdir results
attr runnumber 389
attr seedset 10
attr sl nrr
attr ttl 1000
attr un 06
attr variance 0.05

scalar . 	a 	0.9
scalar . 	fsize 	1
scalar . 	rep 	10
scalar . 	ttl 	1000
scalar . 	un 	06
scalar . 	variance 	0.05
scalar tree_4_3_u06_r10_network.content_distribution 	repo-0 	0
scalar tree_4_3_u06_r10_network.content_distribution 	client-0 	13
scalar tree_4_3_u06_r10_network.content_distribution 	client-1 	14
scalar tree_4_3_u06_r10_network.content_distribution 	client-2 	15
scalar tree_4_3_u06_r10_network.content_distribution 	client-3 	16
scalar tree_4_3_u06_r10_network.content_distribution 	client-4 	17
scalar tree_4_3_u06_r10_network.content_distribution 	client-5 	18
scalar tree_4_3_u06_r10_network.content_distribution 	client-6 	19
scalar tree_4_3_u06_r10_network.content_distribution 	client-7 	20
scalar tree_4_3_u06_r10_network.content_distribution 	client-8 	21
scalar tree_4_3_u06_r10_network.content_distribution 	client-9 	22
scalar tree_4_3_u06_r10_network.content_distribution 	client-10 	23
scalar tree_4_3_u06_r10_network.content_distribution 	client-11 	24
scalar tree_4_3_u06_r10_network.content_distribution 	client-12 	25
scalar tree_4_3_u06_r10_network.content_distribution 	client-13 	26
scalar tree_4_3_u06_r10_network.content_distribution 	client-14 	27
scalar tree_4_3_u06_r10_network.content_distribution 	client-15 	28
scalar tree_4_3_u06_r10_network.content_distribution 	client-16 	29
scalar tree_4_3_u06_r10_network.content_distribution 	client-17 	30
scalar tree_4_3_u06_r10_network.content_distribution 	client-18 	31
scalar tree_4_3_u06_r10_network.content_distribution 	client-19 	32
scalar tree_4_3_u06_r10_network.content_distribution 	client-20 	33
scalar tree_4_3_u06_r10_network.content_distribution 	client-21 	34
scalar tree_4_3_u06_r10_network.content_distribution 	client-22 	35
scalar tree_4_3_u06_r10_network.content_distribution 	client-23 	36
scalar tree_4_3_u06_r10_network.content_distribution 	client-24 	37
scalar tree_4_3_u06_r10_network.content_distribution 	client-25 	38
scalar tree_4_3_u06_r10_network.content_distribution 	client-26 	39
scalar tree_4_3_u06_r10_network.content_distribution 	repo-0_card 	100000
scalar tree_4_3_u06_r10_network.content_distribution 	repo-0_price 	0
scalar tree_4_3_u06_r10_network.statistics 	stabilization_time 	1691.2
scalar tree_4_3_u06_r10_network.statistics 	p_hit 	0.22443122816383
scalar tree_4_3_u06_r10_network.statistics 	interests 	24423.475
scalar tree_4_3_u06_r10_network.statistics 	data 	16344.075
scalar tree_4_3_u06_r10_network.statistics 	hdistance 	2.6199188540838
scalar tree_4_3_u06_r10_network.statistics 	avg_time 	0.004045954548
scalar tree_4_3_u06_r10_network.statistics 	downloads 	323171
scalar tree_4_3_u06_r10_network.statistics 	total_cost 	0
scalar tree_4_3_u06_r10_network.statistics 	total_replicas 	100000
scalar tree_4_3_u06_r10_network.statistics 	inner_hit 	0.40306834462251
scalar tree_4_3_u06_r10_network.node[0].core_layer 	interests[0] 	196208
scalar tree_4_3_u06_r10_network.node[0].core_layer 	repo_load[0] 	192911
scalar tree_4_3_u06_r10_network.node[0].core_layer 	data[0] 	0
scalar tree_4_3_u06_r10_network.node[0].core_layer 	repo_int[0] 	192911
scalar tree_4_3_u06_r10_network.node[0].content_store 	p_hit[0] 	0.016803596183642
scalar tree_4_3_u06_r10_network.node[0].content_store 	hits[0] 	3297
scalar tree_4_3_u06_r10_network.node[0].content_store 	misses[0] 	192911
scalar tree_4_3_u06_r10_network.node[0].content_store 	decision_yes[0] 	1019
scalar tree_4_3_u06_r10_network.node[0].content_store 	decision_no[0] 	191892
scalar tree_4_3_u06_r10_network.node[0].content_store 	decision_ratio[0] 	0.0052822285924597
scalar tree_4_3_u06_r10_network.node[1].core_layer 	interests[1] 	98701
scalar tree_4_3_u06_r10_network.node[1].core_layer 	data[1] 	96204
scalar tree_4_3_u06_r10_network.node[1].content_store 	p_hit[1] 	0.02529862919322
scalar tree_4_3_u06_r10_network.node[1].content_store 	hits[1] 	2497
scalar tree_4_3_u06_r10_network.node[1].content_store 	misses[1] 	96204
scalar tree_4_3_u06_r10_network.node[1].content_store 	decision_yes[1] 	92
scalar tree_4_3_u06_r10_network.node[1].content_store 	decision_no[1] 	96112
scalar tree_4_3_u06_r10_network.node[1].content_store 	decision_ratio[1] 	0.00095630119329758
scalar tree_4_3_u06_r10_network.node[2].core_layer 	interests[2] 	63175
scalar tree_4_3_u06_r10_network.node[2].core_layer 	data[2] 	60123
scalar tree_4_3_u06_r10_network.node[2].content_store 	p_hit[2] 	0.048310249307479
scalar tree_4_3_u06_r10_network.node[2].content_store 	hits[2] 	3052
scalar tree_4_3_u06_r10_network.node[2].content_store 	misses[2] 	60123
scalar tree_4_3_u06_r10_network.node[2].content_store 	decision_yes[2] 	104
scalar tree_4_3_u06_r10_network.node[2].content_store 	decision_no[2] 	60019
scalar tree_4_3_u06_r10_network.node[2].content_store 	decision_ratio[2] 	0.001729787269431
scalar tree_4_3_u06_r10_network.node[3].core_layer 	interests[3] 	48304
scalar tree_4_3_u06_r10_network.node[3].core_layer 	data[3] 	45963
scalar tree_4_3_u06_r10_network.node[3].content_store 	p_hit[3] 	0.048463895329579
scalar tree_4_3_u06_r10_network.node[3].content_store 	hits[3] 	2341
scalar tree_4_3_u06_r10_network.node[3].content_store 	misses[3] 	45963
scalar tree_4_3_u06_r10_network.node[3].content_store 	decision_yes[3] 	77
scalar tree_4_3_u06_r10_network.node[3].content_store 	decision_no[3] 	45886
scalar tree_4_3_u06_r10_network.node[3].content_store 	decision_ratio[3] 	0.0016752605356482
scalar tree_4_3_u06_r10_network.node[4].core_layer 	interests[4] 	33433
scalar tree_4_3_u06_r10_network.node[4].core_layer 	data[4] 	31391
scalar tree_4_3_u06_r10_network.node[4].content_store 	p_hit[4] 	0.061077378637873
scalar tree_4_3_u06_r10_network.node[4].content_store 	hits[4] 	2042
scalar tree_4_3_u06_r10_network.node[4].content_store 	misses[4] 	31391
scalar tree_4_3_u06_r10_network.node[4].content_store 	decision_yes[4] 	47
scalar tree_4_3_u06_r10_network.node[4].content_store 	decision_no[4] 	31344
scalar tree_4_3_u06_r10_network.node[4].content_store 	decision_ratio[4] 	0.0014972444331178
scalar tree_4_3_u06_r10_network.node[5].core_layer 	interests[5] 	19551
scalar tree_4_3_u06_r10_network.node[5].core_layer 	data[5] 	16842
scalar tree_4_3_u06_r10_network.node[5].content_store 	p_hit[5] 	0.13861183571173
scalar tree_4_3_u06_r10_network.node[5].content_store 	hits[5] 	2710
scalar tree_4_3_u06_r10_network.node[5].content_store 	misses[5] 	16841
scalar tree_4_3_u06_r10_network.node[5].content_store 	decision_yes[5] 	90
scalar tree_4_3_u06_r10_network.node[5].content_store 	decision_no[5] 	16752
scalar tree_4_3_u06_r10_network.node[5].content_store 	decision_ratio[5] 	0.0053437833986462
scalar tree_4_3_u06_r10_network.node[6].core_layer 	interests[6] 	27262
scalar tree_4_3_u06_r10_network.node[6].core_layer 	data[6] 	24861
scalar tree_4_3_u06_r10_network.node[6].content_store 	p_hit[6] 	0.088071308047832
scalar tree_4_3_u06_r10_network.node[6].content_store 	hits[6] 	2401
scalar tree_4_3_u06_r10_network.node[6].content_store 	misses[6] 	24861
scalar tree_4_3_u06_r10_network.node[6].content_store 	decision_yes[6] 	110
scalar tree_4_3_u06_r10_network.node[6].content_store 	decision_no[6] 	24751
scalar tree_4_3_u06_r10_network.node[6].content_store 	decision_ratio[6] 	0.0044246007803387
scalar tree_4_3_u06_r10_network.node[7].core_layer 	interests[7] 	34679
scalar tree_4_3_u06_r10_network.node[7].core_layer 	data[7] 	31911
scalar tree_4_3_u06_r10_network.node[7].content_store 	p_hit[7] 	0.079817757144093
scalar tree_4_3_u06_r10_network.node[7].content_store 	hits[7] 	2768
scalar tree_4_3_u06_r10_network.node[7].content_store 	misses[7] 	31911
scalar tree_4_3_u06_r10_network.node[7].content_store 	decision_yes[7] 	69
scalar tree_4_3_u06_r10_network.node[7].content_store 	decision_no[7] 	31842
scalar tree_4_3_u06_r10_network.node[7].content_store 	decision_ratio[7] 	0.0021622637961831
scalar tree_4_3_u06_r10_network.node[8].core_layer 	interests[8] 	25902
scalar tree_4_3_u06_r10_network.node[8].core_layer 	data[8] 	23903
scalar tree_4_3_u06_r10_network.node[8].content_store 	p_hit[8] 	0.077175507682804
scalar tree_4_3_u06_r10_network.node[8].content_store 	hits[8] 	1999
scalar tree_4_3_u06_r10_network.node[8].content_store 	misses[8] 	23903
scalar tree_4_3_u06_r10_network.node[8].content_store 	decision_yes[8] 	66
scalar tree_4_3_u06_r10_network.node[8].content_store 	decision_no[8] 	23837
scalar tree_4_3_u06_r10_network.node[8].content_store 	decision_ratio[8] 	0.0027611596870686
scalar tree_4_3_u06_r10_network.node[9].core_layer 	interests[9] 	19336
scalar tree_4_3_u06_r10_network.node[9].core_layer 	data[9] 	16919
scalar tree_4_3_u06_r10_network.node[9].content_store 	p_hit[9] 	0.125
scalar tree_4_3_u06_r10_network.node[9].content_store 	hits[9] 	2417
scalar tree_4_3_u06_r10_network.node[9].content_store 	misses[9] 	16919
scalar tree_4_3_u06_r10_network.node[9].content_store 	decision_yes[9] 	126
scalar tree_4_3_u06_r10_network.node[9].content_store 	decision_no[9] 	16793
scalar tree_4_3_u06_r10_network.node[9].content_store 	decision_ratio[9] 	0.0074472486553579
scalar tree_4_3_u06_r10_network.node[10].core_layer 	interests[10] 	34674
scalar tree_4_3_u06_r10_network.node[10].core_layer 	data[10] 	32503
scalar tree_4_3_u06_r10_network.node[10].content_store 	p_hit[10] 	0.062554075099498
scalar tree_4_3_u06_r10_network.node[10].content_store 	hits[10] 	2169
scalar tree_4_3_u06_r10_network.node[10].content_store 	misses[10] 	32505
scalar tree_4_3_u06_r10_network.node[10].content_store 	decision_yes[10] 	72
scalar tree_4_3_u06_r10_network.node[10].content_store 	decision_no[10] 	32431
scalar tree_4_3_u06_r10_network.node[10].content_store 	decision_ratio[10] 	0.0022151801372181
scalar tree_4_3_u06_r10_network.node[11].core_layer 	interests[11] 	25549
scalar tree_4_3_u06_r10_network.node[11].core_layer 	data[11] 	23561
scalar tree_4_3_u06_r10_network.node[11].content_store 	p_hit[11] 	0.077811264628753
scalar tree_4_3_u06_r10_network.node[11].content_store 	hits[11] 	1988
scalar tree_4_3_u06_r10_network.node[11].content_store 	misses[11] 	23561
scalar tree_4_3_u06_r10_network.node[11].content_store 	decision_yes[11] 	39
scalar tree_4_3_u06_r10_network.node[11].content_store 	decision_no[11] 	23522
scalar tree_4_3_u06_r10_network.node[11].content_store 	decision_ratio[11] 	0.0016552777895675
scalar tree_4_3_u06_r10_network.node[12].core_layer 	interests[12] 	18786
scalar tree_4_3_u06_r10_network.node[12].core_layer 	data[12] 	16492
scalar tree_4_3_u06_r10_network.node[12].content_store 	p_hit[12] 	0.12211221122112
scalar tree_4_3_u06_r10_network.node[12].content_store 	hits[12] 	2294
scalar tree_4_3_u06_r10_network.node[12].content_store 	misses[12] 	16492
scalar tree_4_3_u06_r10_network.node[12].content_store 	decision_yes[12] 	75
scalar tree_4_3_u06_r10_network.node[12].content_store 	decision_no[12] 	16417
scalar tree_4_3_u06_r10_network.node[12].content_store 	decision_ratio[12] 	0.0045476594712588
scalar tree_4_3_u06_r10_network.node[13].core_layer 	interests[13] 	12284
scalar tree_4_3_u06_r10_network.node[13].core_layer 	data[13] 	8674
scalar tree_4_3_u06_r10_network.node[13].content_store 	p_hit[13] 	0.29387821556496
scalar tree_4_3_u06_r10_network.node[13].content_store 	hits[13] 	3610
scalar tree_4_3_u06_r10_network.node[13].content_store 	misses[13] 	8674
scalar tree_4_3_u06_r10_network.node[13].content_store 	decision_yes[13] 	24
scalar tree_4_3_u06_r10_network.node[13].content_store 	decision_no[13] 	8650
scalar tree_4_3_u06_r10_network.node[13].content_store 	decision_ratio[13] 	0.0027668895549919
scalar tree_4_3_u06_r10_network.node[14].core_layer 	interests[14] 	12418
scalar tree_4_3_u06_r10_network.node[14].core_layer 	data[14] 	8735
scalar tree_4_3_u06_r10_network.node[14].content_store 	p_hit[14] 	0.29658560154614
scalar tree_4_3_u06_r10_network.node[14].content_store 	hits[14] 	3683
scalar tree_4_3_u06_r10_network.node[14].content_store 	misses[14] 	8735
scalar tree_4_3_u06_r10_network.node[14].content_store 	decision_yes[14] 	45
scalar tree_4_3_u06_r10_network.node[14].content_store 	decision_no[14] 	8690
scalar tree_4_3_u06_r10_network.node[14].content_store 	decision_ratio[14] 	0.0051516886090441
scalar tree_4_3_u06_r10_network.node[15].core_layer 	interests[15] 	12524
scalar tree_4_3_u06_r10_network.node[15].core_layer 	data[15] 	8714
scalar tree_4_3_u06_r10_network.node[15].content_store 	p_hit[15] 	0.30421590546151
scalar tree_4_3_u06_r10_network.node[15].content_store 	hits[15] 	3810
scalar tree_4_3_u06_r10_network.node[15].content_store 	misses[15] 	8714
scalar tree_4_3_u06_r10_network.node[15].content_store 	decision_yes[15] 	42
scalar tree_4_3_u06_r10_network.node[15].content_store 	decision_no[15] 	8672
scalar tree_4_3_u06_r10_network.node[15].content_store 	decision_ratio[15] 	0.0048198301583658
scalar tree_4_3_u06_r10_network.node[16].core_layer 	interests[16] 	12460
scalar tree_4_3_u06_r10_network.node[16].core_layer 	data[16] 	8781
scalar tree_4_3_u06_r10_network.node[16].content_store 	p_hit[16] 	0.29518459069021
scalar tree_4_3_u06_r10_network.node[16].content_store 	hits[16] 	3678
scalar tree_4_3_u06_r10_network.node[16].content_store 	misses[16] 	8782
scalar tree_4_3_u06_r10_network.node[16].content_store 	decision_yes[16] 	43
scalar tree_4_3_u06_r10_network.node[16].content_store 	decision_no[16] 	8738
scalar tree_4_3_u06_r10_network.node[16].content_store 	decision_ratio[16] 	0.0048969365675891
scalar tree_4_3_u06_r10_network.node[17].core_layer 	interests[17] 	12156
scalar tree_4_3_u06_r10_network.node[17].core_layer 	data[17] 	8702
scalar tree_4_3_u06_r10_network.node[17].content_store 	p_hit[17] 	0.28405725567621
scalar tree_4_3_u06_r10_network.node[17].content_store 	hits[17] 	3453
scalar tree_4_3_u06_r10_network.node[17].content_store 	misses[17] 	8703
scalar tree_4_3_u06_r10_network.node[17].content_store 	decision_yes[17] 	26
scalar tree_4_3_u06_r10_network.node[17].content_store 	decision_no[17] 	8676
scalar tree_4_3_u06_r10_network.node[17].content_store 	decision_ratio[17] 	0.0029878188922087
scalar tree_4_3_u06_r10_network.node[18].core_layer 	interests[18] 	12397
scalar tree_4_3_u06_r10_network.node[18].core_layer 	data[18] 	8676
scalar tree_4_3_u06_r10_network.node[18].content_store 	p_hit[18] 	0.30023392756312
scalar tree_4_3_u06_r10_network.node[18].content_store 	hits[18] 	3722
scalar tree_4_3_u06_r10_network.node[18].content_store 	misses[18] 	8675
scalar tree_4_3_u06_r10_network.node[18].content_store 	decision_yes[18] 	29
scalar tree_4_3_u06_r10_network.node[18].content_store 	decision_no[18] 	8647
scalar tree_4_3_u06_r10_network.node[18].content_store 	decision_ratio[18] 	0.0033425541724297
scalar tree_4_3_u06_r10_network.node[19].core_layer 	interests[19] 	12042
scalar tree_4_3_u06_r10_network.node[19].core_layer 	data[19] 	8517
scalar tree_4_3_u06_r10_network.node[19].content_store 	p_hit[19] 	0.2927254608869
scalar tree_4_3_u06_r10_network.node[19].content_store 	hits[19] 	3525
scalar tree_4_3_u06_r10_network.node[19].content_store 	misses[19] 	8517
scalar tree_4_3_u06_r10_network.node[19].content_store 	decision_yes[19] 	38
scalar tree_4_3_u06_r10_network.node[19].content_store 	decision_no[19] 	8479
scalar tree_4_3_u06_r10_network.node[19].content_store 	decision_ratio[19] 	0.0044616649054832
scalar tree_4_3_u06_r10_network.node[20].core_layer 	interests[20] 	12423
scalar tree_4_3_u06_r10_network.node[20].core_layer 	data[20] 	8757
scalar tree_4_3_u06_r10_network.node[20].content_store 	p_hit[20] 	0.29509780246317
scalar tree_4_3_u06_r10_network.node[20].content_store 	hits[20] 	3666
scalar tree_4_3_u06_r10_network.node[20].content_store 	misses[20] 	8757
scalar tree_4_3_u06_r10_network.node[20].content_store 	decision_yes[20] 	31
scalar tree_4_3_u06_r10_network.node[20].content_store 	decision_no[20] 	8726
scalar tree_4_3_u06_r10_network.node[20].content_store 	decision_ratio[20] 	0.0035400251227589
scalar tree_4_3_u06_r10_network.node[21].core_layer 	interests[21] 	12096
scalar tree_4_3_u06_r10_network.node[21].core_layer 	data[21] 	8551
scalar tree_4_3_u06_r10_network.node[21].content_store 	p_hit[21] 	0.29307208994709
scalar tree_4_3_u06_r10_network.node[21].content_store 	hits[21] 	3545
scalar tree_4_3_u06_r10_network.node[21].content_store 	misses[21] 	8551
scalar tree_4_3_u06_r10_network.node[21].content_store 	decision_yes[21] 	35
scalar tree_4_3_u06_r10_network.node[21].content_store 	decision_no[21] 	8516
scalar tree_4_3_u06_r10_network.node[21].content_store 	decision_ratio[21] 	0.0040930885276576
scalar tree_4_3_u06_r10_network.node[22].core_layer 	interests[22] 	12145
scalar tree_4_3_u06_r10_network.node[22].core_layer 	data[22] 	8572
scalar tree_4_3_u06_r10_network.node[22].content_store 	p_hit[22] 	0.29419514203376
scalar tree_4_3_u06_r10_network.node[22].content_store 	hits[22] 	3573
scalar tree_4_3_u06_r10_network.node[22].content_store 	misses[22] 	8572
scalar tree_4_3_u06_r10_network.node[22].content_store 	decision_yes[22] 	23
scalar tree_4_3_u06_r10_network.node[22].content_store 	decision_no[22] 	8549
scalar tree_4_3_u06_r10_network.node[22].content_store 	decision_ratio[22] 	0.0026831544563696
scalar tree_4_3_u06_r10_network.node[23].core_layer 	interests[23] 	12194
scalar tree_4_3_u06_r10_network.node[23].core_layer 	data[23] 	8545
scalar tree_4_3_u06_r10_network.node[23].content_store 	p_hit[23] 	0.29924553058881
scalar tree_4_3_u06_r10_network.node[23].content_store 	hits[23] 	3649
scalar tree_4_3_u06_r10_network.node[23].content_store 	misses[23] 	8545
scalar tree_4_3_u06_r10_network.node[23].content_store 	decision_yes[23] 	15
scalar tree_4_3_u06_r10_network.node[23].content_store 	decision_no[23] 	8530
scalar tree_4_3_u06_r10_network.node[23].content_store 	decision_ratio[23] 	0.0017554125219427
scalar tree_4_3_u06_r10_network.node[24].core_layer 	interests[24] 	12516
scalar tree_4_3_u06_r10_network.node[24].core_layer 	data[24] 	8673
scalar tree_4_3_u06_r10_network.node[24].content_store 	p_hit[24] 	0.30704697986577
scalar tree_4_3_u06_r10_network.node[24].content_store 	hits[24] 	3843
scalar tree_4_3_u06_r10_network.node[24].content_store 	misses[24] 	8673
scalar tree_4_3_u06_r10_network.node[24].content_store 	decision_yes[24] 	50
scalar tree_4_3_u06_r10_network.node[24].content_store 	decision_no[24] 	8623
scalar tree_4_3_u06_r10_network.node[24].content_store 	decision_ratio[24] 	0.0057650178715554
scalar tree_4_3_u06_r10_network.node[25].core_layer 	interests[25] 	12544
scalar tree_4_3_u06_r10_network.node[25].core_layer 	data[25] 	8774
scalar tree_4_3_u06_r10_network.node[25].content_store 	p_hit[25] 	0.30046237244898
scalar tree_4_3_u06_r10_network.node[25].content_store 	hits[25] 	3769
scalar tree_4_3_u06_r10_network.node[25].content_store 	misses[25] 	8775
scalar tree_4_3_u06_r10_network.node[25].content_store 	decision_yes[25] 	45
scalar tree_4_3_u06_r10_network.node[25].content_store 	decision_no[25] 	8729
scalar tree_4_3_u06_r10_network.node[25].content_store 	decision_ratio[25] 	0.0051287896056531
scalar tree_4_3_u06_r10_network.node[26].core_layer 	interests[26] 	12047
scalar tree_4_3_u06_r10_network.node[26].core_layer 	data[26] 	8506
scalar tree_4_3_u06_r10_network.node[26].content_store 	p_hit[26] 	0.29393209927783
scalar tree_4_3_u06_r10_network.node[26].content_store 	hits[26] 	3541
scalar tree_4_3_u06_r10_network.node[26].content_store 	misses[26] 	8506
scalar tree_4_3_u06_r10_network.node[26].content_store 	decision_yes[26] 	33
scalar tree_4_3_u06_r10_network.node[26].content_store 	decision_no[26] 	8473
scalar tree_4_3_u06_r10_network.node[26].content_store 	decision_ratio[26] 	0.0038796143898425
scalar tree_4_3_u06_r10_network.node[27].core_layer 	interests[27] 	12057
scalar tree_4_3_u06_r10_network.node[27].core_layer 	data[27] 	8529
scalar tree_4_3_u06_r10_network.node[27].content_store 	p_hit[27] 	0.29261010201543
scalar tree_4_3_u06_r10_network.node[27].content_store 	hits[27] 	3528
scalar tree_4_3_u06_r10_network.node[27].content_store 	misses[27] 	8529
scalar tree_4_3_u06_r10_network.node[27].content_store 	decision_yes[27] 	24
scalar tree_4_3_u06_r10_network.node[27].content_store 	decision_no[27] 	8505
scalar tree_4_3_u06_r10_network.node[27].content_store 	decision_ratio[27] 	0.0028139289482941
scalar tree_4_3_u06_r10_network.node[28].core_layer 	interests[28] 	12367
scalar tree_4_3_u06_r10_network.node[28].core_layer 	data[28] 	8650
scalar tree_4_3_u06_r10_network.node[28].content_store 	p_hit[28] 	0.30055793644376
scalar tree_4_3_u06_r10_network.node[28].content_store 	hits[28] 	3717
scalar tree_4_3_u06_r10_network.node[28].content_store 	misses[28] 	8650
scalar tree_4_3_u06_r10_network.node[28].content_store 	decision_yes[28] 	20
scalar tree_4_3_u06_r10_network.node[28].content_store 	decision_no[28] 	8630
scalar tree_4_3_u06_r10_network.node[28].content_store 	decision_ratio[28] 	0.0023121387283237
scalar tree_4_3_u06_r10_network.node[29].core_layer 	interests[29] 	12602
scalar tree_4_3_u06_r10_network.node[29].core_layer 	data[29] 	8646
scalar tree_4_3_u06_r10_network.node[29].content_store 	p_hit[29] 	0.31391842564672
scalar tree_4_3_u06_r10_network.node[29].content_store 	hits[29] 	3956
scalar tree_4_3_u06_r10_network.node[29].content_store 	misses[29] 	8646
scalar tree_4_3_u06_r10_network.node[29].content_store 	decision_yes[29] 	34
scalar tree_4_3_u06_r10_network.node[29].content_store 	decision_no[29] 	8612
scalar tree_4_3_u06_r10_network.node[29].content_store 	decision_ratio[29] 	0.0039324543141337
scalar tree_4_3_u06_r10_network.node[30].core_layer 	interests[30] 	11936
scalar tree_4_3_u06_r10_network.node[30].core_layer 	data[30] 	8426
scalar tree_4_3_u06_r10_network.node[30].content_store 	p_hit[30] 	0.2939845844504
scalar tree_4_3_u06_r10_network.node[30].content_store 	hits[30] 	3509
scalar tree_4_3_u06_r10_network.node[30].content_store 	misses[30] 	8427
scalar tree_4_3_u06_r10_network.node[30].content_store 	decision_yes[30] 	24
scalar tree_4_3_u06_r10_network.node[30].content_store 	decision_no[30] 	8402
scalar tree_4_3_u06_r10_network.node[30].content_store 	decision_ratio[30] 	0.0028483266081177
scalar tree_4_3_u06_r10_network.node[31].core_layer 	interests[31] 	12210
scalar tree_4_3_u06_r10_network.node[31].core_layer 	data[31] 	8610
scalar tree_4_3_u06_r10_network.node[31].content_store 	p_hit[31] 	0.29475839475839
scalar tree_4_3_u06_r10_network.node[31].content_store 	hits[31] 	3599
scalar tree_4_3_u06_r10_network.node[31].content_store 	misses[31] 	8611
scalar tree_4_3_u06_r10_network.node[31].content_store 	decision_yes[31] 	22
scalar tree_4_3_u06_r10_network.node[31].content_store 	decision_no[31] 	8588
scalar tree_4_3_u06_r10_network.node[31].content_store 	decision_ratio[31] 	0.0025551684088269
scalar tree_4_3_u06_r10_network.node[32].core_layer 	interests[32] 	12042
scalar tree_4_3_u06_r10_network.node[32].core_layer 	data[32] 	8591
scalar tree_4_3_u06_r10_network.node[32].content_store 	p_hit[32] 	0.28658030227537
scalar tree_4_3_u06_r10_network.node[32].content_store 	hits[32] 	3451
scalar tree_4_3_u06_r10_network.node[32].content_store 	misses[32] 	8591
scalar tree_4_3_u06_r10_network.node[32].content_store 	decision_yes[32] 	33
scalar tree_4_3_u06_r10_network.node[32].content_store 	decision_no[32] 	8558
scalar tree_4_3_u06_r10_network.node[32].content_store 	decision_ratio[32] 	0.0038412291933419
scalar tree_4_3_u06_r10_network.node[33].core_layer 	interests[33] 	12392
scalar tree_4_3_u06_r10_network.node[33].core_layer 	data[33] 	8674
scalar tree_4_3_u06_r10_network.node[33].content_store 	p_hit[33] 	0.30003227888961
scalar tree_4_3_u06_r10_network.node[33].content_store 	hits[33] 	3718
scalar tree_4_3_u06_r10_network.node[33].content_store 	misses[33] 	8674
scalar tree_4_3_u06_r10_network.node[33].content_store 	decision_yes[33] 	52
scalar tree_4_3_u06_r10_network.node[33].content_store 	decision_no[33] 	8622
scalar tree_4_3_u06_r10_network.node[33].content_store 	decision_ratio[33] 	0.0059949273691492
scalar tree_4_3_u06_r10_network.node[34].core_layer 	interests[34] 	12211
scalar tree_4_3_u06_r10_network.node[34].core_layer 	data[34] 	8557
scalar tree_4_3_u06_r10_network.node[34].content_store 	p_hit[34] 	0.29923839161412
scalar tree_4_3_u06_r10_network.node[34].content_store 	hits[34] 	3654
scalar tree_4_3_u06_r10_network.node[34].content_store 	misses[34] 	8557
scalar tree_4_3_u06_r10_network.node[34].content_store 	decision_yes[34] 	41
scalar tree_4_3_u06_r10_network.node[34].content_store 	decision_no[34] 	8516
scalar tree_4_3_u06_r10_network.node[34].content_store 	decision_ratio[34] 	0.0047913988547388
scalar tree_4_3_u06_r10_network.node[35].core_layer 	interests[35] 	12038
scalar tree_4_3_u06_r10_network.node[35].core_layer 	data[35] 	8546
scalar tree_4_3_u06_r10_network.node[35].content_store 	p_hit[35] 	0.29008140887191
scalar tree_4_3_u06_r10_network.node[35].content_store 	hits[35] 	3492
scalar tree_4_3_u06_r10_network.node[35].content_store 	misses[35] 	8546
scalar tree_4_3_u06_r10_network.node[35].content_store 	decision_yes[35] 	24
scalar tree_4_3_u06_r10_network.node[35].content_store 	decision_no[35] 	8522
scalar tree_4_3_u06_r10_network.node[35].content_store 	decision_ratio[35] 	0.0028083313831032
scalar tree_4_3_u06_r10_network.node[36].core_layer 	interests[36] 	12461
scalar tree_4_3_u06_r10_network.node[36].core_layer 	data[36] 	8721
scalar tree_4_3_u06_r10_network.node[36].content_store 	p_hit[36] 	0.30013642564802
scalar tree_4_3_u06_r10_network.node[36].content_store 	hits[36] 	3740
scalar tree_4_3_u06_r10_network.node[36].content_store 	misses[36] 	8721
scalar tree_4_3_u06_r10_network.node[36].content_store 	decision_yes[36] 	43
scalar tree_4_3_u06_r10_network.node[36].content_store 	decision_no[36] 	8678
scalar tree_4_3_u06_r10_network.node[36].content_store 	decision_ratio[36] 	0.0049306272216489
scalar tree_4_3_u06_r10_network.node[37].core_layer 	interests[37] 	12579
scalar tree_4_3_u06_r10_network.node[37].core_layer 	data[37] 	8827
scalar tree_4_3_u06_r10_network.node[37].content_store 	p_hit[37] 	0.29827490261547
scalar tree_4_3_u06_r10_network.node[37].content_store 	hits[37] 	3752
scalar tree_4_3_u06_r10_network.node[37].content_store 	misses[37] 	8827
scalar tree_4_3_u06_r10_network.node[37].content_store 	decision_yes[37] 	42
scalar tree_4_3_u06_r10_network.node[37].content_store 	decision_no[37] 	8785
scalar tree_4_3_u06_r10_network.node[37].content_store 	decision_ratio[37] 	0.0047581284694687
scalar tree_4_3_u06_r10_network.node[38].core_layer 	interests[38] 	12100
scalar tree_4_3_u06_r10_network.node[38].core_layer 	data[38] 	8503
scalar tree_4_3_u06_r10_network.node[38].content_store 	p_hit[38] 	0.29727272727273
scalar tree_4_3_u06_r10_network.node[38].content_store 	hits[38] 	3597
scalar tree_4_3_u06_r10_network.node[38].content_store 	misses[38] 	8503
scalar tree_4_3_u06_r10_network.node[38].content_store 	decision_yes[38] 	37
scalar tree_4_3_u06_r10_network.node[38].content_store 	decision_no[38] 	8466
scalar tree_4_3_u06_r10_network.node[38].content_store 	decision_ratio[38] 	0.0043514053863342
scalar tree_4_3_u06_r10_network.node[39].core_layer 	interests[39] 	12138
scalar tree_4_3_u06_r10_network.node[39].core_layer 	data[39] 	8633
scalar tree_4_3_u06_r10_network.node[39].content_store 	p_hit[39] 	0.28876256384907
scalar tree_4_3_u06_r10_network.node[39].content_store 	hits[39] 	3505
scalar tree_4_3_u06_r10_network.node[39].content_store 	misses[39] 	8633
scalar tree_4_3_u06_r10_network.node[39].content_store 	decision_yes[39] 	31
scalar tree_4_3_u06_r10_network.node[39].content_store 	decision_no[39] 	8602
scalar tree_4_3_u06_r10_network.node[39].content_store 	decision_ratio[39] 	0.0035908722344492
scalar tree_4_3_u06_r10_network.client[13] 	hdistance[13] 	2.6348523695311
scalar tree_4_3_u06_r10_network.client[13] 	downloads[13] 	12091
scalar tree_4_3_u06_r10_network.client[13] 	avg_time[13] 	0.004076913691
scalar tree_4_3_u06_r10_network.client[14] 	hdistance[14] 	2.5812775147437
scalar tree_4_3_u06_r10_network.client[14] 	downloads[14] 	12039
scalar tree_4_3_u06_r10_network.client[14] 	avg_time[14] 	0.003989863262
scalar tree_4_3_u06_r10_network.client[15] 	hdistance[15] 	2.6294445832292
scalar tree_4_3_u06_r10_network.client[15] 	downloads[15] 	12009
scalar tree_4_3_u06_r10_network.client[15] 	avg_time[15] 	0.004050126064
scalar tree_4_3_u06_r10_network.client[16] 	hdistance[16] 	2.6072353580082
scalar tree_4_3_u06_r10_network.client[16] 	downloads[16] 	11969
scalar tree_4_3_u06_r10_network.client[16] 	avg_time[16] 	0.004029581804
scalar tree_4_3_u06_r10_network.client[17] 	hdistance[17] 	2.645871559633
scalar tree_4_3_u06_r10_network.client[17] 	downloads[17] 	11990
scalar tree_4_3_u06_r10_network.client[17] 	avg_time[17] 	0.004101581634
scalar tree_4_3_u06_r10_network.client[18] 	hdistance[18] 	2.6141299754923
scalar tree_4_3_u06_r10_network.client[18] 	downloads[18] 	11833
scalar tree_4_3_u06_r10_network.client[18] 	avg_time[18] 	0.004042082739
scalar tree_4_3_u06_r10_network.client[19] 	hdistance[19] 	2.6338087602329
scalar tree_4_3_u06_r10_network.client[19] 	downloads[19] 	11849
scalar tree_4_3_u06_r10_network.client[19] 	avg_time[19] 	0.004072408225
scalar tree_4_3_u06_r10_network.client[20] 	hdistance[20] 	2.6403379265092
scalar tree_4_3_u06_r10_network.client[20] 	downloads[20] 	12192
scalar tree_4_3_u06_r10_network.client[20] 	avg_time[20] 	0.004080705594
scalar tree_4_3_u06_r10_network.client[21] 	hdistance[21] 	2.6410472972973
scalar tree_4_3_u06_r10_network.client[21] 	downloads[21] 	11840
scalar tree_4_3_u06_r10_network.client[21] 	avg_time[21] 	0.004084287567
scalar tree_4_3_u06_r10_network.client[22] 	hdistance[22] 	2.6174867968816
scalar tree_4_3_u06_r10_network.client[22] 	downloads[22] 	11929
scalar tree_4_3_u06_r10_network.client[22] 	avg_time[22] 	0.004054821396
scalar tree_4_3_u06_r10_network.client[23] 	hdistance[23] 	2.6115168303534
scalar tree_4_3_u06_r10_network.client[23] 	downloads[23] 	11913
scalar tree_4_3_u06_r10_network.client[23] 	avg_time[23] 	0.004045325655
scalar tree_4_3_u06_r10_network.client[24] 	hdistance[24] 	2.5812646762831
scalar tree_4_3_u06_r10_network.client[24] 	downloads[24] 	11924
scalar tree_4_3_u06_r10_network.client[24] 	avg_time[24] 	0.003990101007
scalar tree_4_3_u06_r10_network.client[25] 	hdistance[25] 	2.5970881863561
scalar tree_4_3_u06_r10_network.client[25] 	downloads[25] 	12020
scalar tree_4_3_u06_r10_network.client[25] 	avg_time[25] 	0.004021154002
scalar tree_4_3_u06_r10_network.client[26] 	hdistance[26] 	2.6237598789305
scalar tree_4_3_u06_r10_network.client[26] 	downloads[26] 	11894
scalar tree_4_3_u06_r10_network.client[26] 	avg_time[26] 	0.004055487192
scalar tree_4_3_u06_r10_network.client[27] 	hdistance[27] 	2.6311991272971
scalar tree_4_3_u06_r10_network.client[27] 	downloads[27] 	11917
scalar tree_4_3_u06_r10_network.client[27] 	avg_time[27] 	0.00407031674
scalar tree_4_3_u06_r10_network.client[28] 	hdistance[28] 	2.5990931574608
scalar tree_4_3_u06_r10_network.client[28] 	downloads[28] 	12130
scalar tree_4_3_u06_r10_network.client[28] 	avg_time[28] 	0.00402637782
scalar tree_4_3_u06_r10_network.client[29] 	hdistance[29] 	2.5604277188329
scalar tree_4_3_u06_r10_network.client[29] 	downloads[29] 	12064
scalar tree_4_3_u06_r10_network.client[29] 	avg_time[29] 	0.003954075244
scalar tree_4_3_u06_r10_network.client[30] 	hdistance[30] 	2.6272068230277
scalar tree_4_3_u06_r10_network.client[30] 	downloads[30] 	11725
scalar tree_4_3_u06_r10_network.client[30] 	avg_time[30] 	0.004065758417
scalar tree_4_3_u06_r10_network.client[31] 	hdistance[31] 	2.6374293315597
scalar tree_4_3_u06_r10_network.client[31] 	downloads[31] 	12028
scalar tree_4_3_u06_r10_network.client[31] 	avg_time[31] 	0.00406235149
scalar tree_4_3_u06_r10_network.client[32] 	hdistance[32] 	2.6554310272183
scalar tree_4_3_u06_r10_network.client[32] 	downloads[32] 	11867
scalar tree_4_3_u06_r10_network.client[32] 	avg_time[32] 	0.004088140633
scalar tree_4_3_u06_r10_network.client[33] 	hdistance[33] 	2.6373985100862
scalar tree_4_3_u06_r10_network.client[33] 	downloads[33] 	11947
scalar tree_4_3_u06_r10_network.client[33] 	avg_time[33] 	0.004047707711
scalar tree_4_3_u06_r10_network.client[34] 	hdistance[34] 	2.5997626716393
scalar tree_4_3_u06_r10_network.client[34] 	downloads[34] 	11798
scalar tree_4_3_u06_r10_network.client[34] 	avg_time[34] 	0.004012372021
scalar tree_4_3_u06_r10_network.client[35] 	hdistance[35] 	2.6226084050464
scalar tree_4_3_u06_r10_network.client[35] 	downloads[35] 	11969
scalar tree_4_3_u06_r10_network.client[35] 	avg_time[35] 	0.004056977535
scalar tree_4_3_u06_r10_network.client[36] 	hdistance[36] 	2.5952695997353
scalar tree_4_3_u06_r10_network.client[36] 	downloads[36] 	12092
scalar tree_4_3_u06_r10_network.client[36] 	avg_time[36] 	0.004001485581
scalar tree_4_3_u06_r10_network.client[37] 	hdistance[37] 	2.6429923463089
scalar tree_4_3_u06_r10_network.client[37] 	downloads[37] 	12151
scalar tree_4_3_u06_r10_network.client[37] 	avg_time[37] 	0.004053607558
scalar tree_4_3_u06_r10_network.client[38] 	hdistance[38] 	2.6232996745389
scalar tree_4_3_u06_r10_network.client[38] 	downloads[38] 	11983
scalar tree_4_3_u06_r10_network.client[38] 	avg_time[38] 	0.004035046644
scalar tree_4_3_u06_r10_network.client[39] 	hdistance[39] 	2.6465689540306
scalar tree_4_3_u06_r10_network.client[39] 	downloads[39] 	12008
scalar tree_4_3_u06_r10_network.client[39] 	avg_time[39] 	0.004072115586
