version 2
run General-55-20160831-19:49:36-8710
attr a 0.9
attr cd ffc0.25
attr configname General
attr cr lru
attr datetime 20160831-19:49:36
attr experiment General
attr fsize 1
attr inifile hw5115/scenario_Y/omnetp.ini
attr iterationvars "$name=tree_4_3, $un=00, $rep=19, $cd=ffc0.25, $cr=lru, $fsize=1, $a=0.9, $sl=nrr, $ttl=1000, $variance=0.05"
attr iterationvars2 "$name=tree_4_3, $un=00, $rep=19, $cd=ffc0.25, $cr=lru, $fsize=1, $a=0.9, $sl=nrr, $ttl=1000, $variance=0.05, $repetition=0"
attr measurement "$name=tree_4_3, $un=00, $rep=19, $cd=ffc0.25, $cr=lru, $fsize=1, $a=0.9, $sl=nrr, $ttl=1000, $variance=0.05"
attr name tree_4_3
attr network networks.${name}_u${un}_r${rep}_network
attr processid 8710
attr rep 19
attr repetition 0
attr replication #0
attr resultdir results
attr runnumber 55
attr seedset 19
attr sl nrr
attr ttl 1000
attr un 00
attr variance 0.05

scalar . 	a 	0.9
scalar . 	fsize 	1
scalar . 	rep 	19
scalar . 	ttl 	1000
scalar . 	un 	00
scalar . 	variance 	0.05
scalar tree_4_3_u00_r19_network.content_distribution 	repo-0 	0
scalar tree_4_3_u00_r19_network.content_distribution 	client-0 	13
scalar tree_4_3_u00_r19_network.content_distribution 	client-1 	14
scalar tree_4_3_u00_r19_network.content_distribution 	client-2 	15
scalar tree_4_3_u00_r19_network.content_distribution 	client-3 	16
scalar tree_4_3_u00_r19_network.content_distribution 	client-4 	17
scalar tree_4_3_u00_r19_network.content_distribution 	client-5 	18
scalar tree_4_3_u00_r19_network.content_distribution 	client-6 	19
scalar tree_4_3_u00_r19_network.content_distribution 	client-7 	20
scalar tree_4_3_u00_r19_network.content_distribution 	client-8 	21
scalar tree_4_3_u00_r19_network.content_distribution 	client-9 	22
scalar tree_4_3_u00_r19_network.content_distribution 	client-10 	23
scalar tree_4_3_u00_r19_network.content_distribution 	client-11 	24
scalar tree_4_3_u00_r19_network.content_distribution 	client-12 	25
scalar tree_4_3_u00_r19_network.content_distribution 	client-13 	26
scalar tree_4_3_u00_r19_network.content_distribution 	client-14 	27
scalar tree_4_3_u00_r19_network.content_distribution 	client-15 	28
scalar tree_4_3_u00_r19_network.content_distribution 	client-16 	29
scalar tree_4_3_u00_r19_network.content_distribution 	client-17 	30
scalar tree_4_3_u00_r19_network.content_distribution 	client-18 	31
scalar tree_4_3_u00_r19_network.content_distribution 	client-19 	32
scalar tree_4_3_u00_r19_network.content_distribution 	client-20 	33
scalar tree_4_3_u00_r19_network.content_distribution 	client-21 	34
scalar tree_4_3_u00_r19_network.content_distribution 	client-22 	35
scalar tree_4_3_u00_r19_network.content_distribution 	client-23 	36
scalar tree_4_3_u00_r19_network.content_distribution 	client-24 	37
scalar tree_4_3_u00_r19_network.content_distribution 	client-25 	38
scalar tree_4_3_u00_r19_network.content_distribution 	client-26 	39
scalar tree_4_3_u00_r19_network.content_distribution 	repo-0_card 	100000
scalar tree_4_3_u00_r19_network.content_distribution 	repo-0_price 	0
scalar tree_4_3_u00_r19_network.statistics 	stabilization_time 	1751.9
scalar tree_4_3_u00_r19_network.statistics 	p_hit 	0.22292861194095
scalar tree_4_3_u00_r19_network.statistics 	interests 	24844.325
scalar tree_4_3_u00_r19_network.statistics 	data 	16739.975
scalar tree_4_3_u00_r19_network.statistics 	hdistance 	2.6575085330768
scalar tree_4_3_u00_r19_network.statistics 	avg_time 	0.004131034461
scalar tree_4_3_u00_r19_network.statistics 	downloads 	324171
scalar tree_4_3_u00_r19_network.statistics 	total_cost 	0
scalar tree_4_3_u00_r19_network.statistics 	total_replicas 	100000
scalar tree_4_3_u00_r19_network.statistics 	inner_hit 	0.40801922442168
scalar tree_4_3_u00_r19_network.node[0].core_layer 	interests[0] 	195917
scalar tree_4_3_u00_r19_network.node[0].core_layer 	repo_load[0] 	191903
scalar tree_4_3_u00_r19_network.node[0].core_layer 	data[0] 	0
scalar tree_4_3_u00_r19_network.node[0].core_layer 	repo_int[0] 	191903
scalar tree_4_3_u00_r19_network.node[0].content_store 	p_hit[0] 	0.020488267991037
scalar tree_4_3_u00_r19_network.node[0].content_store 	hits[0] 	4014
scalar tree_4_3_u00_r19_network.node[0].content_store 	misses[0] 	191903
scalar tree_4_3_u00_r19_network.node[0].content_store 	decision_yes[0] 	213
scalar tree_4_3_u00_r19_network.node[0].content_store 	decision_no[0] 	191690
scalar tree_4_3_u00_r19_network.node[0].content_store 	decision_ratio[0] 	0.0011099357487898
scalar tree_4_3_u00_r19_network.node[1].core_layer 	interests[1] 	71736
scalar tree_4_3_u00_r19_network.node[1].core_layer 	data[1] 	69174
scalar tree_4_3_u00_r19_network.node[1].content_store 	p_hit[1] 	0.035728225716516
scalar tree_4_3_u00_r19_network.node[1].content_store 	hits[1] 	2563
scalar tree_4_3_u00_r19_network.node[1].content_store 	misses[1] 	69173
scalar tree_4_3_u00_r19_network.node[1].content_store 	decision_yes[1] 	105
scalar tree_4_3_u00_r19_network.node[1].content_store 	decision_no[1] 	69069
scalar tree_4_3_u00_r19_network.node[1].content_store 	decision_ratio[1] 	0.0015179113539769
scalar tree_4_3_u00_r19_network.node[2].core_layer 	interests[2] 	70910
scalar tree_4_3_u00_r19_network.node[2].core_layer 	data[2] 	68426
scalar tree_4_3_u00_r19_network.node[2].content_store 	p_hit[2] 	0.035030320124101
scalar tree_4_3_u00_r19_network.node[2].content_store 	hits[2] 	2484
scalar tree_4_3_u00_r19_network.node[2].content_store 	misses[2] 	68426
scalar tree_4_3_u00_r19_network.node[2].content_store 	decision_yes[2] 	95
scalar tree_4_3_u00_r19_network.node[2].content_store 	decision_no[2] 	68331
scalar tree_4_3_u00_r19_network.node[2].content_store 	decision_ratio[2] 	0.0013883611492707
scalar tree_4_3_u00_r19_network.node[3].core_layer 	interests[3] 	71364
scalar tree_4_3_u00_r19_network.node[3].core_layer 	data[3] 	68976
scalar tree_4_3_u00_r19_network.node[3].content_store 	p_hit[3] 	0.033462249873886
scalar tree_4_3_u00_r19_network.node[3].content_store 	hits[3] 	2388
scalar tree_4_3_u00_r19_network.node[3].content_store 	misses[3] 	68976
scalar tree_4_3_u00_r19_network.node[3].content_store 	decision_yes[3] 	104
scalar tree_4_3_u00_r19_network.node[3].content_store 	decision_no[3] 	68872
scalar tree_4_3_u00_r19_network.node[3].content_store 	decision_ratio[3] 	0.0015077708188355
scalar tree_4_3_u00_r19_network.node[4].core_layer 	interests[4] 	27331
scalar tree_4_3_u00_r19_network.node[4].core_layer 	data[4] 	25201
scalar tree_4_3_u00_r19_network.node[4].content_store 	p_hit[4] 	0.077896893637262
scalar tree_4_3_u00_r19_network.node[4].content_store 	hits[4] 	2129
scalar tree_4_3_u00_r19_network.node[4].content_store 	misses[4] 	25202
scalar tree_4_3_u00_r19_network.node[4].content_store 	decision_yes[4] 	57
scalar tree_4_3_u00_r19_network.node[4].content_store 	decision_no[4] 	25144
scalar tree_4_3_u00_r19_network.node[4].content_store 	decision_ratio[4] 	0.002261815007341
scalar tree_4_3_u00_r19_network.node[5].core_layer 	interests[5] 	27637
scalar tree_4_3_u00_r19_network.node[5].core_layer 	data[5] 	25508
scalar tree_4_3_u00_r19_network.node[5].content_store 	p_hit[5] 	0.07699822701451
scalar tree_4_3_u00_r19_network.node[5].content_store 	hits[5] 	2128
scalar tree_4_3_u00_r19_network.node[5].content_store 	misses[5] 	25509
scalar tree_4_3_u00_r19_network.node[5].content_store 	decision_yes[5] 	81
scalar tree_4_3_u00_r19_network.node[5].content_store 	decision_no[5] 	25427
scalar tree_4_3_u00_r19_network.node[5].content_store 	decision_ratio[5] 	0.0031754743609848
scalar tree_4_3_u00_r19_network.node[6].core_layer 	interests[6] 	27702
scalar tree_4_3_u00_r19_network.node[6].core_layer 	data[6] 	25403
scalar tree_4_3_u00_r19_network.node[6].content_store 	p_hit[6] 	0.082990397805213
scalar tree_4_3_u00_r19_network.node[6].content_store 	hits[6] 	2299
scalar tree_4_3_u00_r19_network.node[6].content_store 	misses[6] 	25403
scalar tree_4_3_u00_r19_network.node[6].content_store 	decision_yes[6] 	69
scalar tree_4_3_u00_r19_network.node[6].content_store 	decision_no[6] 	25334
scalar tree_4_3_u00_r19_network.node[6].content_store 	decision_ratio[6] 	0.0027162146203204
scalar tree_4_3_u00_r19_network.node[7].core_layer 	interests[7] 	27161
scalar tree_4_3_u00_r19_network.node[7].core_layer 	data[7] 	24911
scalar tree_4_3_u00_r19_network.node[7].content_store 	p_hit[7] 	0.082839365266375
scalar tree_4_3_u00_r19_network.node[7].content_store 	hits[7] 	2250
scalar tree_4_3_u00_r19_network.node[7].content_store 	misses[7] 	24911
scalar tree_4_3_u00_r19_network.node[7].content_store 	decision_yes[7] 	77
scalar tree_4_3_u00_r19_network.node[7].content_store 	decision_no[7] 	24834
scalar tree_4_3_u00_r19_network.node[7].content_store 	decision_ratio[7] 	0.003091003974148
scalar tree_4_3_u00_r19_network.node[8].core_layer 	interests[8] 	27319
scalar tree_4_3_u00_r19_network.node[8].core_layer 	data[8] 	25060
scalar tree_4_3_u00_r19_network.node[8].content_store 	p_hit[8] 	0.082689703137011
scalar tree_4_3_u00_r19_network.node[8].content_store 	hits[8] 	2259
scalar tree_4_3_u00_r19_network.node[8].content_store 	misses[8] 	25060
scalar tree_4_3_u00_r19_network.node[8].content_store 	decision_yes[8] 	78
scalar tree_4_3_u00_r19_network.node[8].content_store 	decision_no[8] 	24982
scalar tree_4_3_u00_r19_network.node[8].content_store 	decision_ratio[8] 	0.0031125299281724
scalar tree_4_3_u00_r19_network.node[9].core_layer 	interests[9] 	27361
scalar tree_4_3_u00_r19_network.node[9].core_layer 	data[9] 	25036
scalar tree_4_3_u00_r19_network.node[9].content_store 	p_hit[9] 	0.084974964365338
scalar tree_4_3_u00_r19_network.node[9].content_store 	hits[9] 	2325
scalar tree_4_3_u00_r19_network.node[9].content_store 	misses[9] 	25036
scalar tree_4_3_u00_r19_network.node[9].content_store 	decision_yes[9] 	57
scalar tree_4_3_u00_r19_network.node[9].content_store 	decision_no[9] 	24979
scalar tree_4_3_u00_r19_network.node[9].content_store 	decision_ratio[9] 	0.0022767215210097
scalar tree_4_3_u00_r19_network.node[10].core_layer 	interests[10] 	27454
scalar tree_4_3_u00_r19_network.node[10].core_layer 	data[10] 	25026
scalar tree_4_3_u00_r19_network.node[10].content_store 	p_hit[10] 	0.088438843155824
scalar tree_4_3_u00_r19_network.node[10].content_store 	hits[10] 	2428
scalar tree_4_3_u00_r19_network.node[10].content_store 	misses[10] 	25026
scalar tree_4_3_u00_r19_network.node[10].content_store 	decision_yes[10] 	67
scalar tree_4_3_u00_r19_network.node[10].content_store 	decision_no[10] 	24959
scalar tree_4_3_u00_r19_network.node[10].content_store 	decision_ratio[10] 	0.0026772156956765
scalar tree_4_3_u00_r19_network.node[11].core_layer 	interests[11] 	27709
scalar tree_4_3_u00_r19_network.node[11].core_layer 	data[11] 	25442
scalar tree_4_3_u00_r19_network.node[11].content_store 	p_hit[11] 	0.081814572882457
scalar tree_4_3_u00_r19_network.node[11].content_store 	hits[11] 	2267
scalar tree_4_3_u00_r19_network.node[11].content_store 	misses[11] 	25442
scalar tree_4_3_u00_r19_network.node[11].content_store 	decision_yes[11] 	73
scalar tree_4_3_u00_r19_network.node[11].content_store 	decision_no[11] 	25369
scalar tree_4_3_u00_r19_network.node[11].content_store 	decision_ratio[11] 	0.0028692712837041
scalar tree_4_3_u00_r19_network.node[12].core_layer 	interests[12] 	27384
scalar tree_4_3_u00_r19_network.node[12].core_layer 	data[12] 	25037
scalar tree_4_3_u00_r19_network.node[12].content_store 	p_hit[12] 	0.085706982179375
scalar tree_4_3_u00_r19_network.node[12].content_store 	hits[12] 	2347
scalar tree_4_3_u00_r19_network.node[12].content_store 	misses[12] 	25037
scalar tree_4_3_u00_r19_network.node[12].content_store 	decision_yes[12] 	65
scalar tree_4_3_u00_r19_network.node[12].content_store 	decision_no[12] 	24972
scalar tree_4_3_u00_r19_network.node[12].content_store 	decision_ratio[12] 	0.0025961576866238
scalar tree_4_3_u00_r19_network.node[13].core_layer 	interests[13] 	12343
scalar tree_4_3_u00_r19_network.node[13].core_layer 	data[13] 	8629
scalar tree_4_3_u00_r19_network.node[13].content_store 	p_hit[13] 	0.30089929514705
scalar tree_4_3_u00_r19_network.node[13].content_store 	hits[13] 	3714
scalar tree_4_3_u00_r19_network.node[13].content_store 	misses[13] 	8629
scalar tree_4_3_u00_r19_network.node[13].content_store 	decision_yes[13] 	25
scalar tree_4_3_u00_r19_network.node[13].content_store 	decision_no[13] 	8604
scalar tree_4_3_u00_r19_network.node[13].content_store 	decision_ratio[13] 	0.002897207092363
scalar tree_4_3_u00_r19_network.node[14].core_layer 	interests[14] 	12456
scalar tree_4_3_u00_r19_network.node[14].core_layer 	data[14] 	8742
scalar tree_4_3_u00_r19_network.node[14].content_store 	p_hit[14] 	0.29816955684008
scalar tree_4_3_u00_r19_network.node[14].content_store 	hits[14] 	3714
scalar tree_4_3_u00_r19_network.node[14].content_store 	misses[14] 	8742
scalar tree_4_3_u00_r19_network.node[14].content_store 	decision_yes[14] 	26
scalar tree_4_3_u00_r19_network.node[14].content_store 	decision_no[14] 	8716
scalar tree_4_3_u00_r19_network.node[14].content_store 	decision_ratio[14] 	0.0029741477922672
scalar tree_4_3_u00_r19_network.node[15].core_layer 	interests[15] 	12537
scalar tree_4_3_u00_r19_network.node[15].core_layer 	data[15] 	8816
scalar tree_4_3_u00_r19_network.node[15].content_store 	p_hit[15] 	0.29680146765574
scalar tree_4_3_u00_r19_network.node[15].content_store 	hits[15] 	3721
scalar tree_4_3_u00_r19_network.node[15].content_store 	misses[15] 	8816
scalar tree_4_3_u00_r19_network.node[15].content_store 	decision_yes[15] 	32
scalar tree_4_3_u00_r19_network.node[15].content_store 	decision_no[15] 	8784
scalar tree_4_3_u00_r19_network.node[15].content_store 	decision_ratio[15] 	0.0036297640653358
scalar tree_4_3_u00_r19_network.node[16].core_layer 	interests[16] 	12464
scalar tree_4_3_u00_r19_network.node[16].core_layer 	data[16] 	8770
scalar tree_4_3_u00_r19_network.node[16].content_store 	p_hit[16] 	0.29629332477535
scalar tree_4_3_u00_r19_network.node[16].content_store 	hits[16] 	3693
scalar tree_4_3_u00_r19_network.node[16].content_store 	misses[16] 	8771
scalar tree_4_3_u00_r19_network.node[16].content_store 	decision_yes[16] 	32
scalar tree_4_3_u00_r19_network.node[16].content_store 	decision_no[16] 	8738
scalar tree_4_3_u00_r19_network.node[16].content_store 	decision_ratio[16] 	0.0036488027366021
scalar tree_4_3_u00_r19_network.node[17].core_layer 	interests[17] 	12725
scalar tree_4_3_u00_r19_network.node[17].core_layer 	data[17] 	8916
scalar tree_4_3_u00_r19_network.node[17].content_store 	p_hit[17] 	0.29941060903733
scalar tree_4_3_u00_r19_network.node[17].content_store 	hits[17] 	3810
scalar tree_4_3_u00_r19_network.node[17].content_store 	misses[17] 	8915
scalar tree_4_3_u00_r19_network.node[17].content_store 	decision_yes[17] 	28
scalar tree_4_3_u00_r19_network.node[17].content_store 	decision_no[17] 	8888
scalar tree_4_3_u00_r19_network.node[17].content_store 	decision_ratio[17] 	0.003140421713773
scalar tree_4_3_u00_r19_network.node[18].core_layer 	interests[18] 	12535
scalar tree_4_3_u00_r19_network.node[18].core_layer 	data[18] 	8833
scalar tree_4_3_u00_r19_network.node[18].content_store 	p_hit[18] 	0.29533306741125
scalar tree_4_3_u00_r19_network.node[18].content_store 	hits[18] 	3702
scalar tree_4_3_u00_r19_network.node[18].content_store 	misses[18] 	8833
scalar tree_4_3_u00_r19_network.node[18].content_store 	decision_yes[18] 	36
scalar tree_4_3_u00_r19_network.node[18].content_store 	decision_no[18] 	8797
scalar tree_4_3_u00_r19_network.node[18].content_store 	decision_ratio[18] 	0.0040756254953017
scalar tree_4_3_u00_r19_network.node[19].core_layer 	interests[19] 	12548
scalar tree_4_3_u00_r19_network.node[19].core_layer 	data[19] 	8823
scalar tree_4_3_u00_r19_network.node[19].content_store 	p_hit[19] 	0.29686005737966
scalar tree_4_3_u00_r19_network.node[19].content_store 	hits[19] 	3725
scalar tree_4_3_u00_r19_network.node[19].content_store 	misses[19] 	8823
scalar tree_4_3_u00_r19_network.node[19].content_store 	decision_yes[19] 	29
scalar tree_4_3_u00_r19_network.node[19].content_store 	decision_no[19] 	8794
scalar tree_4_3_u00_r19_network.node[19].content_store 	decision_ratio[19] 	0.0032868638784994
scalar tree_4_3_u00_r19_network.node[20].core_layer 	interests[20] 	12386
scalar tree_4_3_u00_r19_network.node[20].core_layer 	data[20] 	8663
scalar tree_4_3_u00_r19_network.node[20].content_store 	p_hit[20] 	0.3005813014694
scalar tree_4_3_u00_r19_network.node[20].content_store 	hits[20] 	3723
scalar tree_4_3_u00_r19_network.node[20].content_store 	misses[20] 	8663
scalar tree_4_3_u00_r19_network.node[20].content_store 	decision_yes[20] 	19
scalar tree_4_3_u00_r19_network.node[20].content_store 	decision_no[20] 	8644
scalar tree_4_3_u00_r19_network.node[20].content_store 	decision_ratio[20] 	0.0021932355996768
scalar tree_4_3_u00_r19_network.node[21].core_layer 	interests[21] 	12876
scalar tree_4_3_u00_r19_network.node[21].core_layer 	data[21] 	9025
scalar tree_4_3_u00_r19_network.node[21].content_store 	p_hit[21] 	0.29908356632495
scalar tree_4_3_u00_r19_network.node[21].content_store 	hits[21] 	3851
scalar tree_4_3_u00_r19_network.node[21].content_store 	misses[21] 	9025
scalar tree_4_3_u00_r19_network.node[21].content_store 	decision_yes[21] 	28
scalar tree_4_3_u00_r19_network.node[21].content_store 	decision_no[21] 	8997
scalar tree_4_3_u00_r19_network.node[21].content_store 	decision_ratio[21] 	0.0031024930747922
scalar tree_4_3_u00_r19_network.node[22].core_layer 	interests[22] 	12240
scalar tree_4_3_u00_r19_network.node[22].core_layer 	data[22] 	8469
scalar tree_4_3_u00_r19_network.node[22].content_store 	p_hit[22] 	0.30808823529412
scalar tree_4_3_u00_r19_network.node[22].content_store 	hits[22] 	3771
scalar tree_4_3_u00_r19_network.node[22].content_store 	misses[22] 	8469
scalar tree_4_3_u00_r19_network.node[22].content_store 	decision_yes[22] 	33
scalar tree_4_3_u00_r19_network.node[22].content_store 	decision_no[22] 	8436
scalar tree_4_3_u00_r19_network.node[22].content_store 	decision_ratio[22] 	0.0038965639390719
scalar tree_4_3_u00_r19_network.node[23].core_layer 	interests[23] 	12370
scalar tree_4_3_u00_r19_network.node[23].core_layer 	data[23] 	8839
scalar tree_4_3_u00_r19_network.node[23].content_store 	p_hit[23] 	0.28544866612773
scalar tree_4_3_u00_r19_network.node[23].content_store 	hits[23] 	3531
scalar tree_4_3_u00_r19_network.node[23].content_store 	misses[23] 	8839
scalar tree_4_3_u00_r19_network.node[23].content_store 	decision_yes[23] 	37
scalar tree_4_3_u00_r19_network.node[23].content_store 	decision_no[23] 	8802
scalar tree_4_3_u00_r19_network.node[23].content_store 	decision_ratio[23] 	0.0041859938907116
scalar tree_4_3_u00_r19_network.node[24].core_layer 	interests[24] 	12444
scalar tree_4_3_u00_r19_network.node[24].core_layer 	data[24] 	8723
scalar tree_4_3_u00_r19_network.node[24].content_store 	p_hit[24] 	0.29901960784314
scalar tree_4_3_u00_r19_network.node[24].content_store 	hits[24] 	3721
scalar tree_4_3_u00_r19_network.node[24].content_store 	misses[24] 	8723
scalar tree_4_3_u00_r19_network.node[24].content_store 	decision_yes[24] 	22
scalar tree_4_3_u00_r19_network.node[24].content_store 	decision_no[24] 	8701
scalar tree_4_3_u00_r19_network.node[24].content_store 	decision_ratio[24] 	0.0025220680958386
scalar tree_4_3_u00_r19_network.node[25].core_layer 	interests[25] 	12363
scalar tree_4_3_u00_r19_network.node[25].core_layer 	data[25] 	8643
scalar tree_4_3_u00_r19_network.node[25].content_store 	p_hit[25] 	0.30089784033002
scalar tree_4_3_u00_r19_network.node[25].content_store 	hits[25] 	3720
scalar tree_4_3_u00_r19_network.node[25].content_store 	misses[25] 	8643
scalar tree_4_3_u00_r19_network.node[25].content_store 	decision_yes[25] 	26
scalar tree_4_3_u00_r19_network.node[25].content_store 	decision_no[25] 	8617
scalar tree_4_3_u00_r19_network.node[25].content_store 	decision_ratio[25] 	0.0030082147402522
scalar tree_4_3_u00_r19_network.node[26].core_layer 	interests[26] 	12447
scalar tree_4_3_u00_r19_network.node[26].core_layer 	data[26] 	8761
scalar tree_4_3_u00_r19_network.node[26].content_store 	p_hit[26] 	0.29613561500763
scalar tree_4_3_u00_r19_network.node[26].content_store 	hits[26] 	3686
scalar tree_4_3_u00_r19_network.node[26].content_store 	misses[26] 	8761
scalar tree_4_3_u00_r19_network.node[26].content_store 	decision_yes[26] 	26
scalar tree_4_3_u00_r19_network.node[26].content_store 	decision_no[26] 	8735
scalar tree_4_3_u00_r19_network.node[26].content_store 	decision_ratio[26] 	0.0029676977513982
scalar tree_4_3_u00_r19_network.node[27].core_layer 	interests[27] 	12383
scalar tree_4_3_u00_r19_network.node[27].core_layer 	data[27] 	8706
scalar tree_4_3_u00_r19_network.node[27].content_store 	p_hit[27] 	0.29693935233788
scalar tree_4_3_u00_r19_network.node[27].content_store 	hits[27] 	3677
scalar tree_4_3_u00_r19_network.node[27].content_store 	misses[27] 	8706
scalar tree_4_3_u00_r19_network.node[27].content_store 	decision_yes[27] 	27
scalar tree_4_3_u00_r19_network.node[27].content_store 	decision_no[27] 	8679
scalar tree_4_3_u00_r19_network.node[27].content_store 	decision_ratio[27] 	0.0031013094417643
scalar tree_4_3_u00_r19_network.node[28].core_layer 	interests[28] 	12562
scalar tree_4_3_u00_r19_network.node[28].core_layer 	data[28] 	8899
scalar tree_4_3_u00_r19_network.node[28].content_store 	p_hit[28] 	0.29159369527145
scalar tree_4_3_u00_r19_network.node[28].content_store 	hits[28] 	3663
scalar tree_4_3_u00_r19_network.node[28].content_store 	misses[28] 	8899
scalar tree_4_3_u00_r19_network.node[28].content_store 	decision_yes[28] 	21
scalar tree_4_3_u00_r19_network.node[28].content_store 	decision_no[28] 	8878
scalar tree_4_3_u00_r19_network.node[28].content_store 	decision_ratio[28] 	0.0023598157096303
scalar tree_4_3_u00_r19_network.node[29].core_layer 	interests[29] 	12367
scalar tree_4_3_u00_r19_network.node[29].core_layer 	data[29] 	8685
scalar tree_4_3_u00_r19_network.node[29].content_store 	p_hit[29] 	0.2976469636937
scalar tree_4_3_u00_r19_network.node[29].content_store 	hits[29] 	3681
scalar tree_4_3_u00_r19_network.node[29].content_store 	misses[29] 	8686
scalar tree_4_3_u00_r19_network.node[29].content_store 	decision_yes[29] 	18
scalar tree_4_3_u00_r19_network.node[29].content_store 	decision_no[29] 	8667
scalar tree_4_3_u00_r19_network.node[29].content_store 	decision_ratio[29] 	0.0020725388601036
scalar tree_4_3_u00_r19_network.node[30].core_layer 	interests[30] 	12243
scalar tree_4_3_u00_r19_network.node[30].core_layer 	data[30] 	8602
scalar tree_4_3_u00_r19_network.node[30].content_store 	p_hit[30] 	0.2973944294699
scalar tree_4_3_u00_r19_network.node[30].content_store 	hits[30] 	3641
scalar tree_4_3_u00_r19_network.node[30].content_store 	misses[30] 	8602
scalar tree_4_3_u00_r19_network.node[30].content_store 	decision_yes[30] 	30
scalar tree_4_3_u00_r19_network.node[30].content_store 	decision_no[30] 	8572
scalar tree_4_3_u00_r19_network.node[30].content_store 	decision_ratio[30] 	0.0034875610323181
scalar tree_4_3_u00_r19_network.node[31].core_layer 	interests[31] 	12337
scalar tree_4_3_u00_r19_network.node[31].core_layer 	data[31] 	8573
scalar tree_4_3_u00_r19_network.node[31].content_store 	p_hit[31] 	0.30509848423442
scalar tree_4_3_u00_r19_network.node[31].content_store 	hits[31] 	3764
scalar tree_4_3_u00_r19_network.node[31].content_store 	misses[31] 	8573
scalar tree_4_3_u00_r19_network.node[31].content_store 	decision_yes[31] 	26
scalar tree_4_3_u00_r19_network.node[31].content_store 	decision_no[31] 	8547
scalar tree_4_3_u00_r19_network.node[31].content_store 	decision_ratio[31] 	0.0030327773241572
scalar tree_4_3_u00_r19_network.node[32].core_layer 	interests[32] 	12584
scalar tree_4_3_u00_r19_network.node[32].core_layer 	data[32] 	8948
scalar tree_4_3_u00_r19_network.node[32].content_store 	p_hit[32] 	0.28885886840432
scalar tree_4_3_u00_r19_network.node[32].content_store 	hits[32] 	3635
scalar tree_4_3_u00_r19_network.node[32].content_store 	misses[32] 	8949
scalar tree_4_3_u00_r19_network.node[32].content_store 	decision_yes[32] 	26
scalar tree_4_3_u00_r19_network.node[32].content_store 	decision_no[32] 	8922
scalar tree_4_3_u00_r19_network.node[32].content_store 	decision_ratio[32] 	0.002905677246312
scalar tree_4_3_u00_r19_network.node[33].core_layer 	interests[33] 	12387
scalar tree_4_3_u00_r19_network.node[33].core_layer 	data[33] 	8686
scalar tree_4_3_u00_r19_network.node[33].content_store 	p_hit[33] 	0.29878098005974
scalar tree_4_3_u00_r19_network.node[33].content_store 	hits[33] 	3701
scalar tree_4_3_u00_r19_network.node[33].content_store 	misses[33] 	8686
scalar tree_4_3_u00_r19_network.node[33].content_store 	decision_yes[33] 	33
scalar tree_4_3_u00_r19_network.node[33].content_store 	decision_no[33] 	8653
scalar tree_4_3_u00_r19_network.node[33].content_store 	decision_ratio[33] 	0.0037992171310154
scalar tree_4_3_u00_r19_network.node[34].core_layer 	interests[34] 	12531
scalar tree_4_3_u00_r19_network.node[34].core_layer 	data[34] 	8796
scalar tree_4_3_u00_r19_network.node[34].content_store 	p_hit[34] 	0.2980608091932
scalar tree_4_3_u00_r19_network.node[34].content_store 	hits[34] 	3735
scalar tree_4_3_u00_r19_network.node[34].content_store 	misses[34] 	8796
scalar tree_4_3_u00_r19_network.node[34].content_store 	decision_yes[34] 	18
scalar tree_4_3_u00_r19_network.node[34].content_store 	decision_no[34] 	8778
scalar tree_4_3_u00_r19_network.node[34].content_store 	decision_ratio[34] 	0.0020463847203274
scalar tree_4_3_u00_r19_network.node[35].core_layer 	interests[35] 	12651
scalar tree_4_3_u00_r19_network.node[35].core_layer 	data[35] 	8788
scalar tree_4_3_u00_r19_network.node[35].content_store 	p_hit[35] 	0.30535135562406
scalar tree_4_3_u00_r19_network.node[35].content_store 	hits[35] 	3863
scalar tree_4_3_u00_r19_network.node[35].content_store 	misses[35] 	8788
scalar tree_4_3_u00_r19_network.node[35].content_store 	decision_yes[35] 	24
scalar tree_4_3_u00_r19_network.node[35].content_store 	decision_no[35] 	8764
scalar tree_4_3_u00_r19_network.node[35].content_store 	decision_ratio[35] 	0.0027309968138371
scalar tree_4_3_u00_r19_network.node[36].core_layer 	interests[36] 	12591
scalar tree_4_3_u00_r19_network.node[36].core_layer 	data[36] 	8867
scalar tree_4_3_u00_r19_network.node[36].content_store 	p_hit[36] 	0.2957668175681
scalar tree_4_3_u00_r19_network.node[36].content_store 	hits[36] 	3724
scalar tree_4_3_u00_r19_network.node[36].content_store 	misses[36] 	8867
scalar tree_4_3_u00_r19_network.node[36].content_store 	decision_yes[36] 	35
scalar tree_4_3_u00_r19_network.node[36].content_store 	decision_no[36] 	8832
scalar tree_4_3_u00_r19_network.node[36].content_store 	decision_ratio[36] 	0.0039472200293222
scalar tree_4_3_u00_r19_network.node[37].core_layer 	interests[37] 	12404
scalar tree_4_3_u00_r19_network.node[37].core_layer 	data[37] 	8752
scalar tree_4_3_u00_r19_network.node[37].content_store 	p_hit[37] 	0.29434053531119
scalar tree_4_3_u00_r19_network.node[37].content_store 	hits[37] 	3651
scalar tree_4_3_u00_r19_network.node[37].content_store 	misses[37] 	8753
scalar tree_4_3_u00_r19_network.node[37].content_store 	decision_yes[37] 	22
scalar tree_4_3_u00_r19_network.node[37].content_store 	decision_no[37] 	8730
scalar tree_4_3_u00_r19_network.node[37].content_store 	decision_ratio[37] 	0.0025137111517367
scalar tree_4_3_u00_r19_network.node[38].core_layer 	interests[38] 	12420
scalar tree_4_3_u00_r19_network.node[38].core_layer 	data[38] 	8617
scalar tree_4_3_u00_r19_network.node[38].content_store 	p_hit[38] 	0.30619967793881
scalar tree_4_3_u00_r19_network.node[38].content_store 	hits[38] 	3803
scalar tree_4_3_u00_r19_network.node[38].content_store 	misses[38] 	8617
scalar tree_4_3_u00_r19_network.node[38].content_store 	decision_yes[38] 	23
scalar tree_4_3_u00_r19_network.node[38].content_store 	decision_no[38] 	8594
scalar tree_4_3_u00_r19_network.node[38].content_store 	decision_ratio[38] 	0.0026691423929442
scalar tree_4_3_u00_r19_network.node[39].core_layer 	interests[39] 	12594
scalar tree_4_3_u00_r19_network.node[39].core_layer 	data[39] 	8828
scalar tree_4_3_u00_r19_network.node[39].content_store 	p_hit[39] 	0.29903128473876
scalar tree_4_3_u00_r19_network.node[39].content_store 	hits[39] 	3766
scalar tree_4_3_u00_r19_network.node[39].content_store 	misses[39] 	8828
scalar tree_4_3_u00_r19_network.node[39].content_store 	decision_yes[39] 	28
scalar tree_4_3_u00_r19_network.node[39].content_store 	decision_no[39] 	8800
scalar tree_4_3_u00_r19_network.node[39].content_store 	decision_ratio[39] 	0.0031717263253285
scalar tree_4_3_u00_r19_network.client[13] 	hdistance[13] 	2.6638265564366
scalar tree_4_3_u00_r19_network.client[13] 	downloads[13] 	11854
scalar tree_4_3_u00_r19_network.client[13] 	avg_time[13] 	0.004138684387
scalar tree_4_3_u00_r19_network.client[14] 	hdistance[14] 	2.6500868989489
scalar tree_4_3_u00_r19_network.client[14] 	downloads[14] 	12083
scalar tree_4_3_u00_r19_network.client[14] 	avg_time[14] 	0.004114703611
scalar tree_4_3_u00_r19_network.client[15] 	hdistance[15] 	2.6732368596141
scalar tree_4_3_u00_r19_network.client[15] 	downloads[15] 	12024
scalar tree_4_3_u00_r19_network.client[15] 	avg_time[15] 	0.004155186633
scalar tree_4_3_u00_r19_network.client[16] 	hdistance[16] 	2.6858054226475
scalar tree_4_3_u00_r19_network.client[16] 	downloads[16] 	11913
scalar tree_4_3_u00_r19_network.client[16] 	avg_time[16] 	0.004172077934
scalar tree_4_3_u00_r19_network.client[17] 	hdistance[17] 	2.6613591595535
scalar tree_4_3_u00_r19_network.client[17] 	downloads[17] 	12184
scalar tree_4_3_u00_r19_network.client[17] 	avg_time[17] 	0.004143354021
scalar tree_4_3_u00_r19_network.client[18] 	hdistance[18] 	2.6629834254144
scalar tree_4_3_u00_r19_network.client[18] 	downloads[18] 	12127
scalar tree_4_3_u00_r19_network.client[18] 	avg_time[18] 	0.004138309415
scalar tree_4_3_u00_r19_network.client[19] 	hdistance[19] 	2.665867173931
scalar tree_4_3_u00_r19_network.client[19] 	downloads[19] 	12091
scalar tree_4_3_u00_r19_network.client[19] 	avg_time[19] 	0.00413910869
scalar tree_4_3_u00_r19_network.client[20] 	hdistance[20] 	2.6472315436242
scalar tree_4_3_u00_r19_network.client[20] 	downloads[20] 	11920
scalar tree_4_3_u00_r19_network.client[20] 	avg_time[20] 	0.004115097688
scalar tree_4_3_u00_r19_network.client[21] 	hdistance[21] 	2.6530330134981
scalar tree_4_3_u00_r19_network.client[21] 	downloads[21] 	12298
scalar tree_4_3_u00_r19_network.client[21] 	avg_time[21] 	0.004130749894
scalar tree_4_3_u00_r19_network.client[22] 	hdistance[22] 	2.6227912932138
scalar tree_4_3_u00_r19_network.client[22] 	downloads[22] 	11715
scalar tree_4_3_u00_r19_network.client[22] 	avg_time[22] 	0.004076992387
scalar tree_4_3_u00_r19_network.client[23] 	hdistance[23] 	2.6842105263158
scalar tree_4_3_u00_r19_network.client[23] 	downloads[23] 	11989
scalar tree_4_3_u00_r19_network.client[23] 	avg_time[23] 	0.004176825734
scalar tree_4_3_u00_r19_network.client[24] 	hdistance[24] 	2.6534802203305
scalar tree_4_3_u00_r19_network.client[24] 	downloads[24] 	11982
scalar tree_4_3_u00_r19_network.client[24] 	avg_time[24] 	0.004126520152
scalar tree_4_3_u00_r19_network.client[25] 	hdistance[25] 	2.6576470588235
scalar tree_4_3_u00_r19_network.client[25] 	downloads[25] 	11900
scalar tree_4_3_u00_r19_network.client[25] 	avg_time[25] 	0.004126719714
scalar tree_4_3_u00_r19_network.client[26] 	hdistance[26] 	2.6682804674457
scalar tree_4_3_u00_r19_network.client[26] 	downloads[26] 	11980
scalar tree_4_3_u00_r19_network.client[26] 	avg_time[26] 	0.004151416026
scalar tree_4_3_u00_r19_network.client[27] 	hdistance[27] 	2.6596458840312
scalar tree_4_3_u00_r19_network.client[27] 	downloads[27] 	11917
scalar tree_4_3_u00_r19_network.client[27] 	avg_time[27] 	0.004133587671
scalar tree_4_3_u00_r19_network.client[28] 	hdistance[28] 	2.6714262132717
scalar tree_4_3_u00_r19_network.client[28] 	downloads[28] 	12116
scalar tree_4_3_u00_r19_network.client[28] 	avg_time[28] 	0.004153017766
scalar tree_4_3_u00_r19_network.client[29] 	hdistance[29] 	2.6534495766619
scalar tree_4_3_u00_r19_network.client[29] 	downloads[29] 	11929
scalar tree_4_3_u00_r19_network.client[29] 	avg_time[29] 	0.004117736407
scalar tree_4_3_u00_r19_network.client[30] 	hdistance[30] 	2.6586958365132
scalar tree_4_3_u00_r19_network.client[30] 	downloads[30] 	11793
scalar tree_4_3_u00_r19_network.client[30] 	avg_time[30] 	0.00412905668
scalar tree_4_3_u00_r19_network.client[31] 	hdistance[31] 	2.628287255563
scalar tree_4_3_u00_r19_network.client[31] 	downloads[31] 	11864
scalar tree_4_3_u00_r19_network.client[31] 	avg_time[31] 	0.004088331483
scalar tree_4_3_u00_r19_network.client[32] 	hdistance[32] 	2.6839378238342
scalar tree_4_3_u00_r19_network.client[32] 	downloads[32] 	12159
scalar tree_4_3_u00_r19_network.client[32] 	avg_time[32] 	0.004174400553
scalar tree_4_3_u00_r19_network.client[33] 	hdistance[33] 	2.6459117917817
scalar tree_4_3_u00_r19_network.client[33] 	downloads[33] 	11949
scalar tree_4_3_u00_r19_network.client[33] 	avg_time[33] 	0.004114483572
scalar tree_4_3_u00_r19_network.client[34] 	hdistance[34] 	2.6694936393115
scalar tree_4_3_u00_r19_network.client[34] 	downloads[34] 	12027
scalar tree_4_3_u00_r19_network.client[34] 	avg_time[34] 	0.004148662512
scalar tree_4_3_u00_r19_network.client[35] 	hdistance[35] 	2.6520334630995
scalar tree_4_3_u00_r19_network.client[35] 	downloads[35] 	12073
scalar tree_4_3_u00_r19_network.client[35] 	avg_time[35] 	0.004119437014
scalar tree_4_3_u00_r19_network.client[36] 	hdistance[36] 	2.6573218997361
scalar tree_4_3_u00_r19_network.client[36] 	downloads[36] 	12128
scalar tree_4_3_u00_r19_network.client[36] 	avg_time[36] 	0.004132417805
scalar tree_4_3_u00_r19_network.client[37] 	hdistance[37] 	2.6569002830032
scalar tree_4_3_u00_r19_network.client[37] 	downloads[37] 	12014
scalar tree_4_3_u00_r19_network.client[37] 	avg_time[37] 	0.004127852882
scalar tree_4_3_u00_r19_network.client[38] 	hdistance[38] 	2.6169183281888
scalar tree_4_3_u00_r19_network.client[38] 	downloads[38] 	11987
scalar tree_4_3_u00_r19_network.client[38] 	avg_time[38] 	0.004073910381
scalar tree_4_3_u00_r19_network.client[39] 	hdistance[39] 	2.6488687782805
scalar tree_4_3_u00_r19_network.client[39] 	downloads[39] 	12155
scalar tree_4_3_u00_r19_network.client[39] 	avg_time[39] 	0.004119289445
