version 2
run General-26-20160822-14:22:07-32430
attr D fix0.001
attr F spr
attr R lru
attr a 0.9
attr configname General
attr datetime 20160822-14:22:07
attr experiment General
attr inifile hw5115/scenario_B/bus.ini
attr iterationvars "$net=bus, $rep=0, $a=0.9, $F=spr, $D=fix0.001, $R=lru, $window=60, $variance=0.05, $mytime=600"
attr iterationvars2 "$net=bus, $rep=0, $a=0.9, $F=spr, $D=fix0.001, $R=lru, $window=60, $variance=0.05, $mytime=600, $repetition=0"
attr measurement "$net=bus, $rep=0, $a=0.9, $F=spr, $D=fix0.001, $R=lru, $window=60, $variance=0.05, $mytime=600"
attr mytime 600
attr net bus
attr network networks.${net=bus}_network
attr processid 32430
attr rep 0
attr repetition 0
attr replication #0
attr resultdir results
attr runnumber 26
attr seedset 0
attr variance 0.05
attr window 60

scalar . 	a 	0.9
scalar . 	mytime 	600
scalar . 	rep 	0
scalar . 	variance 	0.05
scalar . 	window 	60
scalar bus_network.content_distribution 	repo-0 	9
scalar bus_network.content_distribution 	client-0 	5
scalar bus_network.content_distribution 	client-1 	8
scalar bus_network.content_distribution 	client-2 	9
scalar bus_network.content_distribution 	client-3 	0
scalar bus_network.content_distribution 	client-4 	1
scalar bus_network.content_distribution 	client-5 	7
scalar bus_network.content_distribution 	client-6 	6
scalar bus_network.content_distribution 	client-7 	2
scalar bus_network.content_distribution 	client-8 	4
scalar bus_network.content_distribution 	client-9 	3
scalar bus_network.content_distribution 	repo-0_card 	100000
scalar bus_network.content_distribution 	repo-0_price 	0
scalar bus_network.statistics 	stabilization_time 	2073.4
scalar bus_network.statistics 	p_hit 	0.082815465928832
scalar bus_network.statistics 	interests 	51699.6
scalar bus_network.statistics 	data 	39655.9
scalar bus_network.statistics 	hdistance 	3.964281006846
scalar bus_network.statistics 	avg_time 	0.006586025238
scalar bus_network.statistics 	downloads 	120433
scalar bus_network.statistics 	total_cost 	0
scalar bus_network.statistics 	total_replicas 	100000
scalar bus_network.statistics 	inner_hit 	0.328929778383
scalar bus_network.node[0].core_layer 	interests[0] 	12019
scalar bus_network.node[0].core_layer 	data[0] 	10987
scalar bus_network.node[0].core_layer 	repo_int[0] 	80819
scalar bus_network.node[0].content_store 	p_hit[0] 	0.085697645394792
scalar bus_network.node[0].content_store 	hits[0] 	1030
scalar bus_network.node[0].content_store 	misses[0] 	10989
scalar bus_network.node[0].content_store 	decision_yes[0] 	16
scalar bus_network.node[0].content_store 	decision_no[0] 	10971
scalar bus_network.node[0].content_store 	decision_ratio[0] 	0.0014562664967689
scalar bus_network.node[1].core_layer 	interests[1] 	23036
scalar bus_network.node[1].core_layer 	data[1] 	20490
scalar bus_network.node[1].content_store 	p_hit[1] 	0.1103490189269
scalar bus_network.node[1].content_store 	hits[1] 	2542
scalar bus_network.node[1].content_store 	misses[1] 	20494
scalar bus_network.node[1].content_store 	decision_yes[1] 	26
scalar bus_network.node[1].content_store 	decision_no[1] 	20464
scalar bus_network.node[1].content_store 	decision_ratio[1] 	0.0012689116642265
scalar bus_network.node[2].core_layer 	interests[2] 	32558
scalar bus_network.node[2].core_layer 	data[2] 	29033
scalar bus_network.node[2].content_store 	p_hit[2] 	0.10817617789791
scalar bus_network.node[2].content_store 	hits[2] 	3522
scalar bus_network.node[2].content_store 	misses[2] 	29036
scalar bus_network.node[2].content_store 	decision_yes[2] 	30
scalar bus_network.node[2].content_store 	decision_no[2] 	29003
scalar bus_network.node[2].content_store 	decision_ratio[2] 	0.0010333069266008
scalar bus_network.node[3].core_layer 	interests[3] 	41125
scalar bus_network.node[3].core_layer 	data[3] 	37103
scalar bus_network.node[3].content_store 	p_hit[3] 	0.097726443768997
scalar bus_network.node[3].content_store 	hits[3] 	4019
scalar bus_network.node[3].content_store 	misses[3] 	37106
scalar bus_network.node[3].content_store 	decision_yes[3] 	40
scalar bus_network.node[3].content_store 	decision_no[3] 	37063
scalar bus_network.node[3].content_store 	decision_ratio[3] 	0.0010780799396275
scalar bus_network.node[4].core_layer 	interests[4] 	49067
scalar bus_network.node[4].core_layer 	data[4] 	45250
scalar bus_network.node[4].content_store 	p_hit[4] 	0.077791591089734
scalar bus_network.node[4].content_store 	hits[4] 	3817
scalar bus_network.node[4].content_store 	misses[4] 	45250
scalar bus_network.node[4].content_store 	decision_yes[4] 	52
scalar bus_network.node[4].content_store 	decision_no[4] 	45198
scalar bus_network.node[4].content_store 	decision_ratio[4] 	0.0011491712707182
scalar bus_network.node[5].core_layer 	interests[5] 	57300
scalar bus_network.node[5].core_layer 	data[5] 	52790
scalar bus_network.node[5].content_store 	p_hit[5] 	0.078743455497382
scalar bus_network.node[5].content_store 	hits[5] 	4512
scalar bus_network.node[5].content_store 	misses[5] 	52788
scalar bus_network.node[5].content_store 	decision_yes[5] 	37
scalar bus_network.node[5].content_store 	decision_no[5] 	52753
scalar bus_network.node[5].content_store 	decision_ratio[5] 	0.00070089032013639
scalar bus_network.node[6].core_layer 	interests[6] 	65010
scalar bus_network.node[6].core_layer 	data[6] 	59935
scalar bus_network.node[6].content_store 	p_hit[6] 	0.078064913090294
scalar bus_network.node[6].content_store 	hits[6] 	5075
scalar bus_network.node[6].content_store 	misses[6] 	59935
scalar bus_network.node[6].content_store 	decision_yes[6] 	58
scalar bus_network.node[6].content_store 	decision_no[6] 	59877
scalar bus_network.node[6].content_store 	decision_ratio[6] 	0.00096771502460999
scalar bus_network.node[7].core_layer 	interests[7] 	71807
scalar bus_network.node[7].core_layer 	data[7] 	66965
scalar bus_network.node[7].content_store 	p_hit[7] 	0.067416825657666
scalar bus_network.node[7].content_store 	hits[7] 	4841
scalar bus_network.node[7].content_store 	misses[7] 	66966
scalar bus_network.node[7].content_store 	decision_yes[7] 	73
scalar bus_network.node[7].content_store 	decision_no[7] 	66892
scalar bus_network.node[7].content_store 	decision_ratio[7] 	0.0010901217053685
scalar bus_network.node[8].core_layer 	interests[8] 	78919
scalar bus_network.node[8].core_layer 	data[8] 	74006
scalar bus_network.node[8].content_store 	p_hit[8] 	0.062253703164004
scalar bus_network.node[8].content_store 	hits[8] 	4913
scalar bus_network.node[8].content_store 	misses[8] 	74006
scalar bus_network.node[8].content_store 	decision_yes[8] 	75
scalar bus_network.node[8].content_store 	decision_no[8] 	73931
scalar bus_network.node[8].content_store 	decision_ratio[8] 	0.0010134313434046
scalar bus_network.node[9].core_layer 	interests[9] 	86155
scalar bus_network.node[9].core_layer 	repo_load[9] 	80819
scalar bus_network.node[9].core_layer 	data[9] 	0
scalar bus_network.node[9].content_store 	p_hit[9] 	0.06193488480065
scalar bus_network.node[9].content_store 	hits[9] 	5336
scalar bus_network.node[9].content_store 	misses[9] 	80819
scalar bus_network.node[9].content_store 	decision_yes[9] 	76
scalar bus_network.node[9].content_store 	decision_no[9] 	80743
scalar bus_network.node[9].content_store 	decision_ratio[9] 	0.00094037293210755
scalar bus_network.client[0] 	hdistance[0] 	7.2240159773654
scalar bus_network.client[0] 	downloads[0] 	12017
scalar bus_network.client[0] 	avg_time[0] 	0.013214679746
scalar bus_network.client[1] 	hdistance[1] 	6.421183697186
scalar bus_network.client[1] 	downloads[1] 	12047
scalar bus_network.client[1] 	avg_time[1] 	0.011600502982
scalar bus_network.client[2] 	hdistance[2] 	5.639317089342
scalar bus_network.client[2] 	downloads[2] 	12066
scalar bus_network.client[2] 	avg_time[2] 	0.010031490402
scalar bus_network.client[3] 	hdistance[3] 	4.8658284390769
scalar bus_network.client[3] 	downloads[3] 	12089
scalar bus_network.client[3] 	avg_time[3] 	0.008489707415
scalar bus_network.client[4] 	hdistance[4] 	4.3043296556336
scalar bus_network.client[4] 	downloads[4] 	11964
scalar bus_network.client[4] 	avg_time[4] 	0.007314063334
scalar bus_network.client[5] 	hdistance[5] 	3.6448427516389
scalar bus_network.client[5] 	downloads[5] 	12051
scalar bus_network.client[5] 	avg_time[5] 	0.005965016634
scalar bus_network.client[6] 	hdistance[6] 	2.9433807887416
scalar bus_network.client[6] 	downloads[6] 	12222
scalar bus_network.client[6] 	avg_time[6] 	0.004537411608
scalar bus_network.client[7] 	hdistance[7] 	2.2300176871894
scalar bus_network.client[7] 	downloads[7] 	11873
scalar bus_network.client[7] 	avg_time[7] 	0.003082958338
scalar bus_network.client[8] 	hdistance[8] 	1.5507319113342
scalar bus_network.client[8] 	downloads[8] 	11955
scalar bus_network.client[8] 	avg_time[8] 	0.001624421923
scalar bus_network.client[9] 	hdistance[9] 	0.81916207095234
scalar bus_network.client[9] 	downloads[9] 	12149
scalar bus_network.client[9] 	avg_time[9] 	0
