version 2
run General-125-20160818-22:41:13-32642
attr a 0.9
attr cd lce
attr configname General
attr cr lru
attr datetime 20160818-22:41:13
attr experiment General
attr fsize 1
attr inifile hw5115/scenario_A/Edge.ini
attr iterationvars "$name=tree_4_3, $un=06, $rep=6, $scenario=Edge, $cd=lce, $cr=lru, $fsize=1, $a=0.9, $sl=spr, $ttl=1000, $variance=0.05"
attr iterationvars2 "$name=tree_4_3, $un=06, $rep=6, $scenario=Edge, $cd=lce, $cr=lru, $fsize=1, $a=0.9, $sl=spr, $ttl=1000, $variance=0.05, $repetition=0"
attr measurement "$name=tree_4_3, $un=06, $rep=6, $scenario=Edge, $cd=lce, $cr=lru, $fsize=1, $a=0.9, $sl=spr, $ttl=1000, $variance=0.05"
attr name tree_4_3
attr network networks.${name}_u${un}_r${rep}_network
attr processid 32642
attr rep 6
attr repetition 0
attr replication #0
attr resultdir results
attr runnumber 125
attr scenario Edge
attr seedset 6
attr sl spr
attr ttl 1000
attr un 06
attr variance 0.05

scalar . 	a 	0.9
scalar . 	fsize 	1
scalar . 	rep 	6
scalar . 	ttl 	1000
scalar . 	un 	06
scalar . 	variance 	0.05
scalar tree_4_3_u06_r6_network.content_distribution 	repo-0 	0
scalar tree_4_3_u06_r6_network.content_distribution 	client-0 	13
scalar tree_4_3_u06_r6_network.content_distribution 	client-1 	14
scalar tree_4_3_u06_r6_network.content_distribution 	client-2 	15
scalar tree_4_3_u06_r6_network.content_distribution 	client-3 	16
scalar tree_4_3_u06_r6_network.content_distribution 	client-4 	17
scalar tree_4_3_u06_r6_network.content_distribution 	client-5 	18
scalar tree_4_3_u06_r6_network.content_distribution 	client-6 	19
scalar tree_4_3_u06_r6_network.content_distribution 	client-7 	20
scalar tree_4_3_u06_r6_network.content_distribution 	client-8 	21
scalar tree_4_3_u06_r6_network.content_distribution 	client-9 	22
scalar tree_4_3_u06_r6_network.content_distribution 	client-10 	23
scalar tree_4_3_u06_r6_network.content_distribution 	client-11 	24
scalar tree_4_3_u06_r6_network.content_distribution 	client-12 	25
scalar tree_4_3_u06_r6_network.content_distribution 	client-13 	26
scalar tree_4_3_u06_r6_network.content_distribution 	client-14 	27
scalar tree_4_3_u06_r6_network.content_distribution 	client-15 	28
scalar tree_4_3_u06_r6_network.content_distribution 	client-16 	29
scalar tree_4_3_u06_r6_network.content_distribution 	client-17 	30
scalar tree_4_3_u06_r6_network.content_distribution 	client-18 	31
scalar tree_4_3_u06_r6_network.content_distribution 	client-19 	32
scalar tree_4_3_u06_r6_network.content_distribution 	client-20 	33
scalar tree_4_3_u06_r6_network.content_distribution 	client-21 	34
scalar tree_4_3_u06_r6_network.content_distribution 	client-22 	35
scalar tree_4_3_u06_r6_network.content_distribution 	client-23 	36
scalar tree_4_3_u06_r6_network.content_distribution 	client-24 	37
scalar tree_4_3_u06_r6_network.content_distribution 	client-25 	38
scalar tree_4_3_u06_r6_network.content_distribution 	client-26 	39
scalar tree_4_3_u06_r6_network.content_distribution 	repo-0_card 	100000
scalar tree_4_3_u06_r6_network.content_distribution 	repo-0_price 	0
scalar tree_4_3_u06_r6_network.statistics 	stabilization_time 	423.5
scalar tree_4_3_u06_r6_network.statistics 	p_hit 	0.10564300229091
scalar tree_4_3_u06_r6_network.statistics 	interests 	28626.65
scalar tree_4_3_u06_r6_network.statistics 	data 	20517.25
scalar tree_4_3_u06_r6_network.statistics 	hdistance 	3.3739218327637
scalar tree_4_3_u06_r6_network.statistics 	avg_time 	0.005060459431
scalar tree_4_3_u06_r6_network.statistics 	downloads 	324353
scalar tree_4_3_u06_r6_network.statistics 	total_cost 	0
scalar tree_4_3_u06_r6_network.statistics 	total_replicas 	100000
scalar tree_4_3_u06_r6_network.statistics 	inner_hit 	0.15667498065379
scalar tree_4_3_u06_r6_network.node[0].core_layer 	interests[0] 	273535
scalar tree_4_3_u06_r6_network.node[0].core_layer 	repo_load[0] 	273535
scalar tree_4_3_u06_r6_network.node[0].core_layer 	data[0] 	0
scalar tree_4_3_u06_r6_network.node[0].core_layer 	repo_int[0] 	273535
scalar tree_4_3_u06_r6_network.node[0].content_store 	p_hit[0] 	0
scalar tree_4_3_u06_r6_network.node[0].content_store 	hits[0] 	0
scalar tree_4_3_u06_r6_network.node[0].content_store 	misses[0] 	273535
scalar tree_4_3_u06_r6_network.node[0].content_store 	decision_yes[0] 	0
scalar tree_4_3_u06_r6_network.node[0].content_store 	decision_no[0] 	273535
scalar tree_4_3_u06_r6_network.node[0].content_store 	decision_ratio[0] 	0
scalar tree_4_3_u06_r6_network.node[1].core_layer 	interests[1] 	141631
scalar tree_4_3_u06_r6_network.node[1].core_layer 	data[1] 	141607
scalar tree_4_3_u06_r6_network.node[1].content_store 	p_hit[1] 	0
scalar tree_4_3_u06_r6_network.node[1].content_store 	hits[1] 	0
scalar tree_4_3_u06_r6_network.node[1].content_store 	misses[1] 	141631
scalar tree_4_3_u06_r6_network.node[1].content_store 	decision_yes[1] 	0
scalar tree_4_3_u06_r6_network.node[1].content_store 	decision_no[1] 	141607
scalar tree_4_3_u06_r6_network.node[1].content_store 	decision_ratio[1] 	0
scalar tree_4_3_u06_r6_network.node[2].core_layer 	interests[2] 	40598
scalar tree_4_3_u06_r6_network.node[2].core_layer 	data[2] 	40597
scalar tree_4_3_u06_r6_network.node[2].content_store 	p_hit[2] 	0
scalar tree_4_3_u06_r6_network.node[2].content_store 	hits[2] 	0
scalar tree_4_3_u06_r6_network.node[2].content_store 	misses[2] 	40598
scalar tree_4_3_u06_r6_network.node[2].content_store 	decision_yes[2] 	0
scalar tree_4_3_u06_r6_network.node[2].content_store 	decision_no[2] 	40597
scalar tree_4_3_u06_r6_network.node[2].content_store 	decision_ratio[2] 	0
scalar tree_4_3_u06_r6_network.node[3].core_layer 	interests[3] 	91339
scalar tree_4_3_u06_r6_network.node[3].core_layer 	data[3] 	91331
scalar tree_4_3_u06_r6_network.node[3].content_store 	p_hit[3] 	0
scalar tree_4_3_u06_r6_network.node[3].content_store 	hits[3] 	0
scalar tree_4_3_u06_r6_network.node[3].content_store 	misses[3] 	91339
scalar tree_4_3_u06_r6_network.node[3].content_store 	decision_yes[3] 	0
scalar tree_4_3_u06_r6_network.node[3].content_store 	decision_no[3] 	91331
scalar tree_4_3_u06_r6_network.node[3].content_store 	decision_ratio[3] 	0
scalar tree_4_3_u06_r6_network.node[4].core_layer 	interests[4] 	50416
scalar tree_4_3_u06_r6_network.node[4].core_layer 	data[4] 	50409
scalar tree_4_3_u06_r6_network.node[4].content_store 	p_hit[4] 	0
scalar tree_4_3_u06_r6_network.node[4].content_store 	hits[4] 	0
scalar tree_4_3_u06_r6_network.node[4].content_store 	misses[4] 	50416
scalar tree_4_3_u06_r6_network.node[4].content_store 	decision_yes[4] 	0
scalar tree_4_3_u06_r6_network.node[4].content_store 	decision_no[4] 	50409
scalar tree_4_3_u06_r6_network.node[4].content_store 	decision_ratio[4] 	0
scalar tree_4_3_u06_r6_network.node[5].core_layer 	interests[5] 	30369
scalar tree_4_3_u06_r6_network.node[5].core_layer 	data[5] 	30369
scalar tree_4_3_u06_r6_network.node[5].content_store 	p_hit[5] 	0
scalar tree_4_3_u06_r6_network.node[5].content_store 	hits[5] 	0
scalar tree_4_3_u06_r6_network.node[5].content_store 	misses[5] 	30369
scalar tree_4_3_u06_r6_network.node[5].content_store 	decision_yes[5] 	0
scalar tree_4_3_u06_r6_network.node[5].content_store 	decision_no[5] 	30369
scalar tree_4_3_u06_r6_network.node[5].content_store 	decision_ratio[5] 	0
scalar tree_4_3_u06_r6_network.node[6].core_layer 	interests[6] 	10183
scalar tree_4_3_u06_r6_network.node[6].core_layer 	data[6] 	10183
scalar tree_4_3_u06_r6_network.node[6].content_store 	p_hit[6] 	0
scalar tree_4_3_u06_r6_network.node[6].content_store 	hits[6] 	0
scalar tree_4_3_u06_r6_network.node[6].content_store 	misses[6] 	10183
scalar tree_4_3_u06_r6_network.node[6].content_store 	decision_yes[6] 	0
scalar tree_4_3_u06_r6_network.node[6].content_store 	decision_no[6] 	10183
scalar tree_4_3_u06_r6_network.node[6].content_store 	decision_ratio[6] 	0
scalar tree_4_3_u06_r6_network.node[7].core_layer 	interests[7] 	50674
scalar tree_4_3_u06_r6_network.node[7].core_layer 	data[7] 	50671
scalar tree_4_3_u06_r6_network.node[7].content_store 	p_hit[7] 	0
scalar tree_4_3_u06_r6_network.node[7].content_store 	hits[7] 	0
scalar tree_4_3_u06_r6_network.node[7].content_store 	misses[7] 	50674
scalar tree_4_3_u06_r6_network.node[7].content_store 	decision_yes[7] 	0
scalar tree_4_3_u06_r6_network.node[7].content_store 	decision_no[7] 	50671
scalar tree_4_3_u06_r6_network.node[7].content_store 	decision_ratio[7] 	0
scalar tree_4_3_u06_r6_network.node[8].core_layer 	interests[8] 	20047
scalar tree_4_3_u06_r6_network.node[8].core_layer 	data[8] 	20046
scalar tree_4_3_u06_r6_network.node[8].content_store 	p_hit[8] 	0
scalar tree_4_3_u06_r6_network.node[8].content_store 	hits[8] 	0
scalar tree_4_3_u06_r6_network.node[8].content_store 	misses[8] 	20047
scalar tree_4_3_u06_r6_network.node[8].content_store 	decision_yes[8] 	0
scalar tree_4_3_u06_r6_network.node[8].content_store 	decision_no[8] 	20046
scalar tree_4_3_u06_r6_network.node[8].content_store 	decision_ratio[8] 	0
scalar tree_4_3_u06_r6_network.node[9].core_layer 	interests[9] 	20553
scalar tree_4_3_u06_r6_network.node[9].core_layer 	data[9] 	20551
scalar tree_4_3_u06_r6_network.node[9].content_store 	p_hit[9] 	0
scalar tree_4_3_u06_r6_network.node[9].content_store 	hits[9] 	0
scalar tree_4_3_u06_r6_network.node[9].content_store 	misses[9] 	20553
scalar tree_4_3_u06_r6_network.node[9].content_store 	decision_yes[9] 	0
scalar tree_4_3_u06_r6_network.node[9].content_store 	decision_no[9] 	20551
scalar tree_4_3_u06_r6_network.node[9].content_store 	decision_ratio[9] 	0
scalar tree_4_3_u06_r6_network.node[10].core_layer 	interests[10] 	40568
scalar tree_4_3_u06_r6_network.node[10].core_layer 	data[10] 	40567
scalar tree_4_3_u06_r6_network.node[10].content_store 	p_hit[10] 	0
scalar tree_4_3_u06_r6_network.node[10].content_store 	hits[10] 	0
scalar tree_4_3_u06_r6_network.node[10].content_store 	misses[10] 	40568
scalar tree_4_3_u06_r6_network.node[10].content_store 	decision_yes[10] 	0
scalar tree_4_3_u06_r6_network.node[10].content_store 	decision_no[10] 	40567
scalar tree_4_3_u06_r6_network.node[10].content_store 	decision_ratio[10] 	0
scalar tree_4_3_u06_r6_network.node[11].core_layer 	interests[11] 	20394
scalar tree_4_3_u06_r6_network.node[11].core_layer 	data[11] 	20392
scalar tree_4_3_u06_r6_network.node[11].content_store 	p_hit[11] 	0
scalar tree_4_3_u06_r6_network.node[11].content_store 	hits[11] 	0
scalar tree_4_3_u06_r6_network.node[11].content_store 	misses[11] 	20394
scalar tree_4_3_u06_r6_network.node[11].content_store 	decision_yes[11] 	0
scalar tree_4_3_u06_r6_network.node[11].content_store 	decision_no[11] 	20392
scalar tree_4_3_u06_r6_network.node[11].content_store 	decision_ratio[11] 	0
scalar tree_4_3_u06_r6_network.node[12].core_layer 	interests[12] 	30382
scalar tree_4_3_u06_r6_network.node[12].core_layer 	data[12] 	30380
scalar tree_4_3_u06_r6_network.node[12].content_store 	p_hit[12] 	0
scalar tree_4_3_u06_r6_network.node[12].content_store 	hits[12] 	0
scalar tree_4_3_u06_r6_network.node[12].content_store 	misses[12] 	30382
scalar tree_4_3_u06_r6_network.node[12].content_store 	decision_yes[12] 	0
scalar tree_4_3_u06_r6_network.node[12].content_store 	decision_no[12] 	30380
scalar tree_4_3_u06_r6_network.node[12].content_store 	decision_ratio[12] 	0
scalar tree_4_3_u06_r6_network.node[13].core_layer 	interests[13] 	11918
scalar tree_4_3_u06_r6_network.node[13].core_layer 	data[13] 	10005
scalar tree_4_3_u06_r6_network.node[13].content_store 	p_hit[13] 	0.16034569558651
scalar tree_4_3_u06_r6_network.node[13].content_store 	hits[13] 	1911
scalar tree_4_3_u06_r6_network.node[13].content_store 	misses[13] 	10007
scalar tree_4_3_u06_r6_network.node[13].content_store 	decision_yes[13] 	10005
scalar tree_4_3_u06_r6_network.node[13].content_store 	decision_no[13] 	0
scalar tree_4_3_u06_r6_network.node[13].content_store 	decision_ratio[13] 	1
scalar tree_4_3_u06_r6_network.node[14].core_layer 	interests[14] 	11952
scalar tree_4_3_u06_r6_network.node[14].core_layer 	data[14] 	10060
scalar tree_4_3_u06_r6_network.node[14].content_store 	p_hit[14] 	0.15821619812584
scalar tree_4_3_u06_r6_network.node[14].content_store 	hits[14] 	1891
scalar tree_4_3_u06_r6_network.node[14].content_store 	misses[14] 	10061
scalar tree_4_3_u06_r6_network.node[14].content_store 	decision_yes[14] 	10060
scalar tree_4_3_u06_r6_network.node[14].content_store 	decision_no[14] 	0
scalar tree_4_3_u06_r6_network.node[14].content_store 	decision_ratio[14] 	1
scalar tree_4_3_u06_r6_network.node[15].core_layer 	interests[15] 	11919
scalar tree_4_3_u06_r6_network.node[15].core_layer 	data[15] 	10022
scalar tree_4_3_u06_r6_network.node[15].content_store 	p_hit[15] 	0.15915764745365
scalar tree_4_3_u06_r6_network.node[15].content_store 	hits[15] 	1897
scalar tree_4_3_u06_r6_network.node[15].content_store 	misses[15] 	10022
scalar tree_4_3_u06_r6_network.node[15].content_store 	decision_yes[15] 	10022
scalar tree_4_3_u06_r6_network.node[15].content_store 	decision_no[15] 	0
scalar tree_4_3_u06_r6_network.node[15].content_store 	decision_ratio[15] 	1
scalar tree_4_3_u06_r6_network.node[16].core_layer 	interests[16] 	12093
scalar tree_4_3_u06_r6_network.node[16].core_layer 	data[16] 	10142
scalar tree_4_3_u06_r6_network.node[16].content_store 	p_hit[16] 	0.16133300256347
scalar tree_4_3_u06_r6_network.node[16].content_store 	hits[16] 	1951
scalar tree_4_3_u06_r6_network.node[16].content_store 	misses[16] 	10142
scalar tree_4_3_u06_r6_network.node[16].content_store 	decision_yes[16] 	10142
scalar tree_4_3_u06_r6_network.node[16].content_store 	decision_no[16] 	0
scalar tree_4_3_u06_r6_network.node[16].content_store 	decision_ratio[16] 	1
scalar tree_4_3_u06_r6_network.node[17].core_layer 	interests[17] 	11824
scalar tree_4_3_u06_r6_network.node[17].core_layer 	data[17] 	9908
scalar tree_4_3_u06_r6_network.node[17].content_store 	p_hit[17] 	0.16212787550744
scalar tree_4_3_u06_r6_network.node[17].content_store 	hits[17] 	1917
scalar tree_4_3_u06_r6_network.node[17].content_store 	misses[17] 	9907
scalar tree_4_3_u06_r6_network.node[17].content_store 	decision_yes[17] 	9908
scalar tree_4_3_u06_r6_network.node[17].content_store 	decision_no[17] 	0
scalar tree_4_3_u06_r6_network.node[17].content_store 	decision_ratio[17] 	1
scalar tree_4_3_u06_r6_network.node[18].core_layer 	interests[18] 	12193
scalar tree_4_3_u06_r6_network.node[18].core_layer 	data[18] 	10282
scalar tree_4_3_u06_r6_network.node[18].content_store 	p_hit[18] 	0.15656524235217
scalar tree_4_3_u06_r6_network.node[18].content_store 	hits[18] 	1909
scalar tree_4_3_u06_r6_network.node[18].content_store 	misses[18] 	10284
scalar tree_4_3_u06_r6_network.node[18].content_store 	decision_yes[18] 	10282
scalar tree_4_3_u06_r6_network.node[18].content_store 	decision_no[18] 	0
scalar tree_4_3_u06_r6_network.node[18].content_store 	decision_ratio[18] 	1
scalar tree_4_3_u06_r6_network.node[19].core_layer 	interests[19] 	12115
scalar tree_4_3_u06_r6_network.node[19].core_layer 	data[19] 	10187
scalar tree_4_3_u06_r6_network.node[19].content_store 	p_hit[19] 	0.15914156004953
scalar tree_4_3_u06_r6_network.node[19].content_store 	hits[19] 	1928
scalar tree_4_3_u06_r6_network.node[19].content_store 	misses[19] 	10187
scalar tree_4_3_u06_r6_network.node[19].content_store 	decision_yes[19] 	10187
scalar tree_4_3_u06_r6_network.node[19].content_store 	decision_no[19] 	0
scalar tree_4_3_u06_r6_network.node[19].content_store 	decision_ratio[19] 	1
scalar tree_4_3_u06_r6_network.node[20].core_layer 	interests[20] 	12077
scalar tree_4_3_u06_r6_network.node[20].core_layer 	data[20] 	10180
scalar tree_4_3_u06_r6_network.node[20].content_store 	p_hit[20] 	0.15707543264056
scalar tree_4_3_u06_r6_network.node[20].content_store 	hits[20] 	1897
scalar tree_4_3_u06_r6_network.node[20].content_store 	misses[20] 	10180
scalar tree_4_3_u06_r6_network.node[20].content_store 	decision_yes[20] 	10180
scalar tree_4_3_u06_r6_network.node[20].content_store 	decision_no[20] 	0
scalar tree_4_3_u06_r6_network.node[20].content_store 	decision_ratio[20] 	1
scalar tree_4_3_u06_r6_network.node[21].core_layer 	interests[21] 	11956
scalar tree_4_3_u06_r6_network.node[21].core_layer 	data[21] 	10183
scalar tree_4_3_u06_r6_network.node[21].content_store 	p_hit[21] 	0.14812646370023
scalar tree_4_3_u06_r6_network.node[21].content_store 	hits[21] 	1771
scalar tree_4_3_u06_r6_network.node[21].content_store 	misses[21] 	10185
scalar tree_4_3_u06_r6_network.node[21].content_store 	decision_yes[21] 	10183
scalar tree_4_3_u06_r6_network.node[21].content_store 	decision_no[21] 	0
scalar tree_4_3_u06_r6_network.node[21].content_store 	decision_ratio[21] 	1
scalar tree_4_3_u06_r6_network.node[22].core_layer 	interests[22] 	12001
scalar tree_4_3_u06_r6_network.node[22].core_layer 	data[22] 	10106
scalar tree_4_3_u06_r6_network.node[22].content_store 	p_hit[22] 	0.157903508041
scalar tree_4_3_u06_r6_network.node[22].content_store 	hits[22] 	1895
scalar tree_4_3_u06_r6_network.node[22].content_store 	misses[22] 	10106
scalar tree_4_3_u06_r6_network.node[22].content_store 	decision_yes[22] 	10106
scalar tree_4_3_u06_r6_network.node[22].content_store 	decision_no[22] 	0
scalar tree_4_3_u06_r6_network.node[22].content_store 	decision_ratio[22] 	1
scalar tree_4_3_u06_r6_network.node[23].core_layer 	interests[23] 	12153
scalar tree_4_3_u06_r6_network.node[23].core_layer 	data[23] 	10324
scalar tree_4_3_u06_r6_network.node[23].content_store 	p_hit[23] 	0.15025096683946
scalar tree_4_3_u06_r6_network.node[23].content_store 	hits[23] 	1826
scalar tree_4_3_u06_r6_network.node[23].content_store 	misses[23] 	10327
scalar tree_4_3_u06_r6_network.node[23].content_store 	decision_yes[23] 	10324
scalar tree_4_3_u06_r6_network.node[23].content_store 	decision_no[23] 	0
scalar tree_4_3_u06_r6_network.node[23].content_store 	decision_ratio[23] 	1
scalar tree_4_3_u06_r6_network.node[24].core_layer 	interests[24] 	12068
scalar tree_4_3_u06_r6_network.node[24].core_layer 	data[24] 	10111
scalar tree_4_3_u06_r6_network.node[24].content_store 	p_hit[24] 	0.16216440172357
scalar tree_4_3_u06_r6_network.node[24].content_store 	hits[24] 	1957
scalar tree_4_3_u06_r6_network.node[24].content_store 	misses[24] 	10111
scalar tree_4_3_u06_r6_network.node[24].content_store 	decision_yes[24] 	10111
scalar tree_4_3_u06_r6_network.node[24].content_store 	decision_no[24] 	0
scalar tree_4_3_u06_r6_network.node[24].content_store 	decision_ratio[24] 	1
scalar tree_4_3_u06_r6_network.node[25].core_layer 	interests[25] 	11865
scalar tree_4_3_u06_r6_network.node[25].core_layer 	data[25] 	10060
scalar tree_4_3_u06_r6_network.node[25].content_store 	p_hit[25] 	0.15204382638011
scalar tree_4_3_u06_r6_network.node[25].content_store 	hits[25] 	1804
scalar tree_4_3_u06_r6_network.node[25].content_store 	misses[25] 	10061
scalar tree_4_3_u06_r6_network.node[25].content_store 	decision_yes[25] 	10060
scalar tree_4_3_u06_r6_network.node[25].content_store 	decision_no[25] 	0
scalar tree_4_3_u06_r6_network.node[25].content_store 	decision_ratio[25] 	1
scalar tree_4_3_u06_r6_network.node[26].core_layer 	interests[26] 	11878
scalar tree_4_3_u06_r6_network.node[26].core_layer 	data[26] 	9974
scalar tree_4_3_u06_r6_network.node[26].content_store 	p_hit[26] 	0.16029634618623
scalar tree_4_3_u06_r6_network.node[26].content_store 	hits[26] 	1904
scalar tree_4_3_u06_r6_network.node[26].content_store 	misses[26] 	9974
scalar tree_4_3_u06_r6_network.node[26].content_store 	decision_yes[26] 	9974
scalar tree_4_3_u06_r6_network.node[26].content_store 	decision_no[26] 	0
scalar tree_4_3_u06_r6_network.node[26].content_store 	decision_ratio[26] 	1
scalar tree_4_3_u06_r6_network.node[27].core_layer 	interests[27] 	11931
scalar tree_4_3_u06_r6_network.node[27].core_layer 	data[27] 	10073
scalar tree_4_3_u06_r6_network.node[27].content_store 	p_hit[27] 	0.15547732796916
scalar tree_4_3_u06_r6_network.node[27].content_store 	hits[27] 	1855
scalar tree_4_3_u06_r6_network.node[27].content_store 	misses[27] 	10076
scalar tree_4_3_u06_r6_network.node[27].content_store 	decision_yes[27] 	10073
scalar tree_4_3_u06_r6_network.node[27].content_store 	decision_no[27] 	0
scalar tree_4_3_u06_r6_network.node[27].content_store 	decision_ratio[27] 	1
scalar tree_4_3_u06_r6_network.node[28].core_layer 	interests[28] 	11949
scalar tree_4_3_u06_r6_network.node[28].core_layer 	data[28] 	10074
scalar tree_4_3_u06_r6_network.node[28].content_store 	p_hit[28] 	0.15683320779982
scalar tree_4_3_u06_r6_network.node[28].content_store 	hits[28] 	1874
scalar tree_4_3_u06_r6_network.node[28].content_store 	misses[28] 	10075
scalar tree_4_3_u06_r6_network.node[28].content_store 	decision_yes[28] 	10074
scalar tree_4_3_u06_r6_network.node[28].content_store 	decision_no[28] 	0
scalar tree_4_3_u06_r6_network.node[28].content_store 	decision_ratio[28] 	1
scalar tree_4_3_u06_r6_network.node[29].core_layer 	interests[29] 	12022
scalar tree_4_3_u06_r6_network.node[29].core_layer 	data[29] 	10170
scalar tree_4_3_u06_r6_network.node[29].content_store 	p_hit[29] 	0.15388454500083
scalar tree_4_3_u06_r6_network.node[29].content_store 	hits[29] 	1850
scalar tree_4_3_u06_r6_network.node[29].content_store 	misses[29] 	10172
scalar tree_4_3_u06_r6_network.node[29].content_store 	decision_yes[29] 	10170
scalar tree_4_3_u06_r6_network.node[29].content_store 	decision_no[29] 	0
scalar tree_4_3_u06_r6_network.node[29].content_store 	decision_ratio[29] 	1
scalar tree_4_3_u06_r6_network.node[30].core_layer 	interests[30] 	12171
scalar tree_4_3_u06_r6_network.node[30].core_layer 	data[30] 	10382
scalar tree_4_3_u06_r6_network.node[30].content_store 	p_hit[30] 	0.14698874373511
scalar tree_4_3_u06_r6_network.node[30].content_store 	hits[30] 	1789
scalar tree_4_3_u06_r6_network.node[30].content_store 	misses[30] 	10382
scalar tree_4_3_u06_r6_network.node[30].content_store 	decision_yes[30] 	10382
scalar tree_4_3_u06_r6_network.node[30].content_store 	decision_no[30] 	0
scalar tree_4_3_u06_r6_network.node[30].content_store 	decision_ratio[30] 	1
scalar tree_4_3_u06_r6_network.node[31].core_layer 	interests[31] 	11994
scalar tree_4_3_u06_r6_network.node[31].core_layer 	data[31] 	10077
scalar tree_4_3_u06_r6_network.node[31].content_store 	p_hit[31] 	0.15982991495748
scalar tree_4_3_u06_r6_network.node[31].content_store 	hits[31] 	1917
scalar tree_4_3_u06_r6_network.node[31].content_store 	misses[31] 	10077
scalar tree_4_3_u06_r6_network.node[31].content_store 	decision_yes[31] 	10077
scalar tree_4_3_u06_r6_network.node[31].content_store 	decision_no[31] 	0
scalar tree_4_3_u06_r6_network.node[31].content_store 	decision_ratio[31] 	1
scalar tree_4_3_u06_r6_network.node[32].core_layer 	interests[32] 	11904
scalar tree_4_3_u06_r6_network.node[32].core_layer 	data[32] 	10040
scalar tree_4_3_u06_r6_network.node[32].content_store 	p_hit[32] 	0.15658602150538
scalar tree_4_3_u06_r6_network.node[32].content_store 	hits[32] 	1864
scalar tree_4_3_u06_r6_network.node[32].content_store 	misses[32] 	10040
scalar tree_4_3_u06_r6_network.node[32].content_store 	decision_yes[32] 	10040
scalar tree_4_3_u06_r6_network.node[32].content_store 	decision_no[32] 	0
scalar tree_4_3_u06_r6_network.node[32].content_store 	decision_ratio[32] 	1
scalar tree_4_3_u06_r6_network.node[33].core_layer 	interests[33] 	12132
scalar tree_4_3_u06_r6_network.node[33].core_layer 	data[33] 	10301
scalar tree_4_3_u06_r6_network.node[33].content_store 	p_hit[33] 	0.15075832509067
scalar tree_4_3_u06_r6_network.node[33].content_store 	hits[33] 	1829
scalar tree_4_3_u06_r6_network.node[33].content_store 	misses[33] 	10303
scalar tree_4_3_u06_r6_network.node[33].content_store 	decision_yes[33] 	10301
scalar tree_4_3_u06_r6_network.node[33].content_store 	decision_no[33] 	0
scalar tree_4_3_u06_r6_network.node[33].content_store 	decision_ratio[33] 	1
scalar tree_4_3_u06_r6_network.node[34].core_layer 	interests[34] 	11973
scalar tree_4_3_u06_r6_network.node[34].core_layer 	data[34] 	10150
scalar tree_4_3_u06_r6_network.node[34].content_store 	p_hit[34] 	0.15225924997912
scalar tree_4_3_u06_r6_network.node[34].content_store 	hits[34] 	1823
scalar tree_4_3_u06_r6_network.node[34].content_store 	misses[34] 	10150
scalar tree_4_3_u06_r6_network.node[34].content_store 	decision_yes[34] 	10150
scalar tree_4_3_u06_r6_network.node[34].content_store 	decision_no[34] 	0
scalar tree_4_3_u06_r6_network.node[34].content_store 	decision_ratio[34] 	1
scalar tree_4_3_u06_r6_network.node[35].core_layer 	interests[35] 	12163
scalar tree_4_3_u06_r6_network.node[35].core_layer 	data[35] 	10294
scalar tree_4_3_u06_r6_network.node[35].content_store 	p_hit[35] 	0.15349831456055
scalar tree_4_3_u06_r6_network.node[35].content_store 	hits[35] 	1867
scalar tree_4_3_u06_r6_network.node[35].content_store 	misses[35] 	10296
scalar tree_4_3_u06_r6_network.node[35].content_store 	decision_yes[35] 	10294
scalar tree_4_3_u06_r6_network.node[35].content_store 	decision_no[35] 	0
scalar tree_4_3_u06_r6_network.node[35].content_store 	decision_ratio[35] 	1
scalar tree_4_3_u06_r6_network.node[36].core_layer 	interests[36] 	12060
scalar tree_4_3_u06_r6_network.node[36].core_layer 	data[36] 	10100
scalar tree_4_3_u06_r6_network.node[36].content_store 	p_hit[36] 	0.16243781094527
scalar tree_4_3_u06_r6_network.node[36].content_store 	hits[36] 	1959
scalar tree_4_3_u06_r6_network.node[36].content_store 	misses[36] 	10101
scalar tree_4_3_u06_r6_network.node[36].content_store 	decision_yes[36] 	10100
scalar tree_4_3_u06_r6_network.node[36].content_store 	decision_no[36] 	0
scalar tree_4_3_u06_r6_network.node[36].content_store 	decision_ratio[36] 	1
scalar tree_4_3_u06_r6_network.node[37].core_layer 	interests[37] 	12091
scalar tree_4_3_u06_r6_network.node[37].core_layer 	data[37] 	10155
scalar tree_4_3_u06_r6_network.node[37].content_store 	p_hit[37] 	0.15995368455876
scalar tree_4_3_u06_r6_network.node[37].content_store 	hits[37] 	1934
scalar tree_4_3_u06_r6_network.node[37].content_store 	misses[37] 	10157
scalar tree_4_3_u06_r6_network.node[37].content_store 	decision_yes[37] 	10155
scalar tree_4_3_u06_r6_network.node[37].content_store 	decision_no[37] 	0
scalar tree_4_3_u06_r6_network.node[37].content_store 	decision_ratio[37] 	1
scalar tree_4_3_u06_r6_network.node[38].core_layer 	interests[38] 	11832
scalar tree_4_3_u06_r6_network.node[38].core_layer 	data[38] 	10033
scalar tree_4_3_u06_r6_network.node[38].content_store 	p_hit[38] 	0.15196078431373
scalar tree_4_3_u06_r6_network.node[38].content_store 	hits[38] 	1798
scalar tree_4_3_u06_r6_network.node[38].content_store 	misses[38] 	10034
scalar tree_4_3_u06_r6_network.node[38].content_store 	decision_yes[38] 	10033
scalar tree_4_3_u06_r6_network.node[38].content_store 	decision_no[38] 	0
scalar tree_4_3_u06_r6_network.node[38].content_store 	decision_ratio[38] 	1
scalar tree_4_3_u06_r6_network.node[39].core_layer 	interests[39] 	12143
scalar tree_4_3_u06_r6_network.node[39].core_layer 	data[39] 	10194
scalar tree_4_3_u06_r6_network.node[39].content_store 	p_hit[39] 	0.16050399407066
scalar tree_4_3_u06_r6_network.node[39].content_store 	hits[39] 	1949
scalar tree_4_3_u06_r6_network.node[39].content_store 	misses[39] 	10194
scalar tree_4_3_u06_r6_network.node[39].content_store 	decision_yes[39] 	10194
scalar tree_4_3_u06_r6_network.node[39].content_store 	decision_no[39] 	0
scalar tree_4_3_u06_r6_network.node[39].content_store 	decision_ratio[39] 	1
scalar tree_4_3_u06_r6_network.client[13] 	hdistance[13] 	3.3585095669688
scalar tree_4_3_u06_r6_network.client[13] 	downloads[13] 	11916
scalar tree_4_3_u06_r6_network.client[13] 	avg_time[13] 	0.005037646839
scalar tree_4_3_u06_r6_network.client[14] 	hdistance[14] 	3.3670822525312
scalar tree_4_3_u06_r6_network.client[14] 	downloads[14] 	11951
scalar tree_4_3_u06_r6_network.client[14] 	avg_time[14] 	0.005050007455
scalar tree_4_3_u06_r6_network.client[15] 	hdistance[15] 	3.3633694101854
scalar tree_4_3_u06_r6_network.client[15] 	downloads[15] 	11919
scalar tree_4_3_u06_r6_network.client[15] 	avg_time[15] 	0.005044036751
scalar tree_4_3_u06_r6_network.client[16] 	hdistance[16] 	3.3546679897461
scalar tree_4_3_u06_r6_network.client[16] 	downloads[16] 	12093
scalar tree_4_3_u06_r6_network.client[16] 	avg_time[16] 	0.005031728772
scalar tree_4_3_u06_r6_network.client[17] 	hdistance[17] 	3.3515433403806
scalar tree_4_3_u06_r6_network.client[17] 	downloads[17] 	11825
scalar tree_4_3_u06_r6_network.client[17] 	avg_time[17] 	0.005027136902
scalar tree_4_3_u06_r6_network.client[18] 	hdistance[18] 	3.3736362890657
scalar tree_4_3_u06_r6_network.client[18] 	downloads[18] 	12191
scalar tree_4_3_u06_r6_network.client[18] 	avg_time[18] 	0.005059938385
scalar tree_4_3_u06_r6_network.client[19] 	hdistance[19] 	3.3634337598019
scalar tree_4_3_u06_r6_network.client[19] 	downloads[19] 	12115
scalar tree_4_3_u06_r6_network.client[19] 	avg_time[19] 	0.005044611145
scalar tree_4_3_u06_r6_network.client[20] 	hdistance[20] 	3.3716982694378
scalar tree_4_3_u06_r6_network.client[20] 	downloads[20] 	12077
scalar tree_4_3_u06_r6_network.client[20] 	avg_time[20] 	0.005056997783
scalar tree_4_3_u06_r6_network.client[21] 	hdistance[21] 	3.4073950142212
scalar tree_4_3_u06_r6_network.client[21] 	downloads[21] 	11954
scalar tree_4_3_u06_r6_network.client[21] 	avg_time[21] 	0.005110723546
scalar tree_4_3_u06_r6_network.client[22] 	hdistance[22] 	3.368385967836
scalar tree_4_3_u06_r6_network.client[22] 	downloads[22] 	12001
scalar tree_4_3_u06_r6_network.client[22] 	avg_time[22] 	0.005051943491
scalar tree_4_3_u06_r6_network.client[23] 	hdistance[23] 	3.3988477366255
scalar tree_4_3_u06_r6_network.client[23] 	downloads[23] 	12150
scalar tree_4_3_u06_r6_network.client[23] 	avg_time[23] 	0.005097721668
scalar tree_4_3_u06_r6_network.client[24] 	hdistance[24] 	3.3513423931057
scalar tree_4_3_u06_r6_network.client[24] 	downloads[24] 	12068
scalar tree_4_3_u06_r6_network.client[24] 	avg_time[24] 	0.005026971087
scalar tree_4_3_u06_r6_network.client[25] 	hdistance[25] 	3.391773432232
scalar tree_4_3_u06_r6_network.client[25] 	downloads[25] 	11864
scalar tree_4_3_u06_r6_network.client[25] 	avg_time[25] 	0.005086780551
scalar tree_4_3_u06_r6_network.client[26] 	hdistance[26] 	3.3588146152551
scalar tree_4_3_u06_r6_network.client[26] 	downloads[26] 	11878
scalar tree_4_3_u06_r6_network.client[26] 	avg_time[26] 	0.00503821896
scalar tree_4_3_u06_r6_network.client[27] 	hdistance[27] 	3.3779342723005
scalar tree_4_3_u06_r6_network.client[27] 	downloads[27] 	11928
scalar tree_4_3_u06_r6_network.client[27] 	avg_time[27] 	0.005066305128
scalar tree_4_3_u06_r6_network.client[28] 	hdistance[28] 	3.372614663542
scalar tree_4_3_u06_r6_network.client[28] 	downloads[28] 	11948
scalar tree_4_3_u06_r6_network.client[28] 	avg_time[28] 	0.005058483753
scalar tree_4_3_u06_r6_network.client[29] 	hdistance[29] 	3.3843594009983
scalar tree_4_3_u06_r6_network.client[29] 	downloads[29] 	12020
scalar tree_4_3_u06_r6_network.client[29] 	avg_time[29] 	0.005076246321
scalar tree_4_3_u06_r6_network.client[30] 	hdistance[30] 	3.4120450250596
scalar tree_4_3_u06_r6_network.client[30] 	downloads[30] 	12171
scalar tree_4_3_u06_r6_network.client[30] 	avg_time[30] 	0.005117882441
scalar tree_4_3_u06_r6_network.client[31] 	hdistance[31] 	3.3606803401701
scalar tree_4_3_u06_r6_network.client[31] 	downloads[31] 	11994
scalar tree_4_3_u06_r6_network.client[31] 	avg_time[31] 	0.005041017537
scalar tree_4_3_u06_r6_network.client[32] 	hdistance[32] 	3.3736559139785
scalar tree_4_3_u06_r6_network.client[32] 	downloads[32] 	11904
scalar tree_4_3_u06_r6_network.client[32] 	avg_time[32] 	0.005060055772
scalar tree_4_3_u06_r6_network.client[33] 	hdistance[33] 	3.3968672712284
scalar tree_4_3_u06_r6_network.client[33] 	downloads[33] 	12130
scalar tree_4_3_u06_r6_network.client[33] 	avg_time[33] 	0.005094714143
scalar tree_4_3_u06_r6_network.client[34] 	hdistance[34] 	3.3909630000835
scalar tree_4_3_u06_r6_network.client[34] 	downloads[34] 	11973
scalar tree_4_3_u06_r6_network.client[34] 	avg_time[34] 	0.005086441527
scalar tree_4_3_u06_r6_network.client[35] 	hdistance[35] 	3.3859057643286
scalar tree_4_3_u06_r6_network.client[35] 	downloads[35] 	12161
scalar tree_4_3_u06_r6_network.client[35] 	avg_time[35] 	0.005078500077
scalar tree_4_3_u06_r6_network.client[36] 	hdistance[36] 	3.3501948751969
scalar tree_4_3_u06_r6_network.client[36] 	downloads[36] 	12059
scalar tree_4_3_u06_r6_network.client[36] 	avg_time[36] 	0.005024723716
scalar tree_4_3_u06_r6_network.client[37] 	hdistance[37] 	3.3600794110348
scalar tree_4_3_u06_r6_network.client[37] 	downloads[37] 	12089
scalar tree_4_3_u06_r6_network.client[37] 	avg_time[37] 	0.005039225097
scalar tree_4_3_u06_r6_network.client[38] 	hdistance[38] 	3.3921054855887
scalar tree_4_3_u06_r6_network.client[38] 	downloads[38] 	11831
scalar tree_4_3_u06_r6_network.client[38] 	avg_time[38] 	0.005087470058
scalar tree_4_3_u06_r6_network.client[39] 	hdistance[39] 	3.3579840237174
scalar tree_4_3_u06_r6_network.client[39] 	downloads[39] 	12143
scalar tree_4_3_u06_r6_network.client[39] 	avg_time[39] 	0.005036875732
