version 2
run General-130-20160818-22:45:15-32642
attr a 0.9
attr cd lce
attr configname General
attr cr lru
attr datetime 20160818-22:45:15
attr experiment General
attr fsize 1
attr inifile hw5115/scenario_A/Edge.ini
attr iterationvars "$name=tree_4_3, $un=06, $rep=11, $scenario=Edge, $cd=lce, $cr=lru, $fsize=1, $a=0.9, $sl=spr, $ttl=1000, $variance=0.05"
attr iterationvars2 "$name=tree_4_3, $un=06, $rep=11, $scenario=Edge, $cd=lce, $cr=lru, $fsize=1, $a=0.9, $sl=spr, $ttl=1000, $variance=0.05, $repetition=0"
attr measurement "$name=tree_4_3, $un=06, $rep=11, $scenario=Edge, $cd=lce, $cr=lru, $fsize=1, $a=0.9, $sl=spr, $ttl=1000, $variance=0.05"
attr name tree_4_3
attr network networks.${name}_u${un}_r${rep}_network
attr processid 32642
attr rep 11
attr repetition 0
attr replication #0
attr resultdir results
attr runnumber 130
attr scenario Edge
attr seedset 11
attr sl spr
attr ttl 1000
attr un 06
attr variance 0.05

scalar . 	a 	0.9
scalar . 	fsize 	1
scalar . 	rep 	11
scalar . 	ttl 	1000
scalar . 	un 	06
scalar . 	variance 	0.05
scalar tree_4_3_u06_r11_network.content_distribution 	repo-0 	0
scalar tree_4_3_u06_r11_network.content_distribution 	client-0 	13
scalar tree_4_3_u06_r11_network.content_distribution 	client-1 	14
scalar tree_4_3_u06_r11_network.content_distribution 	client-2 	15
scalar tree_4_3_u06_r11_network.content_distribution 	client-3 	16
scalar tree_4_3_u06_r11_network.content_distribution 	client-4 	17
scalar tree_4_3_u06_r11_network.content_distribution 	client-5 	18
scalar tree_4_3_u06_r11_network.content_distribution 	client-6 	19
scalar tree_4_3_u06_r11_network.content_distribution 	client-7 	20
scalar tree_4_3_u06_r11_network.content_distribution 	client-8 	21
scalar tree_4_3_u06_r11_network.content_distribution 	client-9 	22
scalar tree_4_3_u06_r11_network.content_distribution 	client-10 	23
scalar tree_4_3_u06_r11_network.content_distribution 	client-11 	24
scalar tree_4_3_u06_r11_network.content_distribution 	client-12 	25
scalar tree_4_3_u06_r11_network.content_distribution 	client-13 	26
scalar tree_4_3_u06_r11_network.content_distribution 	client-14 	27
scalar tree_4_3_u06_r11_network.content_distribution 	client-15 	28
scalar tree_4_3_u06_r11_network.content_distribution 	client-16 	29
scalar tree_4_3_u06_r11_network.content_distribution 	client-17 	30
scalar tree_4_3_u06_r11_network.content_distribution 	client-18 	31
scalar tree_4_3_u06_r11_network.content_distribution 	client-19 	32
scalar tree_4_3_u06_r11_network.content_distribution 	client-20 	33
scalar tree_4_3_u06_r11_network.content_distribution 	client-21 	34
scalar tree_4_3_u06_r11_network.content_distribution 	client-22 	35
scalar tree_4_3_u06_r11_network.content_distribution 	client-23 	36
scalar tree_4_3_u06_r11_network.content_distribution 	client-24 	37
scalar tree_4_3_u06_r11_network.content_distribution 	client-25 	38
scalar tree_4_3_u06_r11_network.content_distribution 	client-26 	39
scalar tree_4_3_u06_r11_network.content_distribution 	repo-0_card 	100000
scalar tree_4_3_u06_r11_network.content_distribution 	repo-0_price 	0
scalar tree_4_3_u06_r11_network.statistics 	stabilization_time 	419
scalar tree_4_3_u06_r11_network.statistics 	p_hit 	0.10549945704837
scalar tree_4_3_u06_r11_network.statistics 	interests 	28576.05
scalar tree_4_3_u06_r11_network.statistics 	data 	20482.3
scalar tree_4_3_u06_r11_network.statistics 	hdistance 	3.3747617680801
scalar tree_4_3_u06_r11_network.statistics 	avg_time 	0.005061770786
scalar tree_4_3_u06_r11_network.statistics 	downloads 	323720
scalar tree_4_3_u06_r11_network.statistics 	total_cost 	0
scalar tree_4_3_u06_r11_network.statistics 	total_replicas 	100000
scalar tree_4_3_u06_r11_network.statistics 	inner_hit 	0.15646546398122
scalar tree_4_3_u06_r11_network.node[0].core_layer 	interests[0] 	273069
scalar tree_4_3_u06_r11_network.node[0].core_layer 	repo_load[0] 	273069
scalar tree_4_3_u06_r11_network.node[0].core_layer 	data[0] 	0
scalar tree_4_3_u06_r11_network.node[0].core_layer 	repo_int[0] 	273069
scalar tree_4_3_u06_r11_network.node[0].content_store 	p_hit[0] 	0
scalar tree_4_3_u06_r11_network.node[0].content_store 	hits[0] 	0
scalar tree_4_3_u06_r11_network.node[0].content_store 	misses[0] 	273069
scalar tree_4_3_u06_r11_network.node[0].content_store 	decision_yes[0] 	0
scalar tree_4_3_u06_r11_network.node[0].content_store 	decision_no[0] 	273069
scalar tree_4_3_u06_r11_network.node[0].content_store 	decision_ratio[0] 	0
scalar tree_4_3_u06_r11_network.node[1].core_layer 	interests[1] 	171558
scalar tree_4_3_u06_r11_network.node[1].core_layer 	data[1] 	171532
scalar tree_4_3_u06_r11_network.node[1].content_store 	p_hit[1] 	0
scalar tree_4_3_u06_r11_network.node[1].content_store 	hits[1] 	0
scalar tree_4_3_u06_r11_network.node[1].content_store 	misses[1] 	171558
scalar tree_4_3_u06_r11_network.node[1].content_store 	decision_yes[1] 	0
scalar tree_4_3_u06_r11_network.node[1].content_store 	decision_no[1] 	171532
scalar tree_4_3_u06_r11_network.node[1].content_store 	decision_ratio[1] 	0
scalar tree_4_3_u06_r11_network.node[2].core_layer 	interests[2] 	81455
scalar tree_4_3_u06_r11_network.node[2].core_layer 	data[2] 	81451
scalar tree_4_3_u06_r11_network.node[2].content_store 	p_hit[2] 	0
scalar tree_4_3_u06_r11_network.node[2].content_store 	hits[2] 	0
scalar tree_4_3_u06_r11_network.node[2].content_store 	misses[2] 	81455
scalar tree_4_3_u06_r11_network.node[2].content_store 	decision_yes[2] 	0
scalar tree_4_3_u06_r11_network.node[2].content_store 	decision_no[2] 	81451
scalar tree_4_3_u06_r11_network.node[2].content_store 	decision_ratio[2] 	0
scalar tree_4_3_u06_r11_network.node[3].core_layer 	interests[3] 	20087
scalar tree_4_3_u06_r11_network.node[3].core_layer 	data[3] 	20087
scalar tree_4_3_u06_r11_network.node[3].content_store 	p_hit[3] 	0
scalar tree_4_3_u06_r11_network.node[3].content_store 	hits[3] 	0
scalar tree_4_3_u06_r11_network.node[3].content_store 	misses[3] 	20087
scalar tree_4_3_u06_r11_network.node[3].content_store 	decision_yes[3] 	0
scalar tree_4_3_u06_r11_network.node[3].content_store 	decision_no[3] 	20087
scalar tree_4_3_u06_r11_network.node[3].content_store 	decision_ratio[3] 	0
scalar tree_4_3_u06_r11_network.node[4].core_layer 	interests[4] 	50399
scalar tree_4_3_u06_r11_network.node[4].core_layer 	data[4] 	50391
scalar tree_4_3_u06_r11_network.node[4].content_store 	p_hit[4] 	0
scalar tree_4_3_u06_r11_network.node[4].content_store 	hits[4] 	0
scalar tree_4_3_u06_r11_network.node[4].content_store 	misses[4] 	50399
scalar tree_4_3_u06_r11_network.node[4].content_store 	decision_yes[4] 	0
scalar tree_4_3_u06_r11_network.node[4].content_store 	decision_no[4] 	50391
scalar tree_4_3_u06_r11_network.node[4].content_store 	decision_ratio[4] 	0
scalar tree_4_3_u06_r11_network.node[5].core_layer 	interests[5] 	20079
scalar tree_4_3_u06_r11_network.node[5].core_layer 	data[5] 	20076
scalar tree_4_3_u06_r11_network.node[5].content_store 	p_hit[5] 	0
scalar tree_4_3_u06_r11_network.node[5].content_store 	hits[5] 	0
scalar tree_4_3_u06_r11_network.node[5].content_store 	misses[5] 	20079
scalar tree_4_3_u06_r11_network.node[5].content_store 	decision_yes[5] 	0
scalar tree_4_3_u06_r11_network.node[5].content_store 	decision_no[5] 	20076
scalar tree_4_3_u06_r11_network.node[5].content_store 	decision_ratio[5] 	0
scalar tree_4_3_u06_r11_network.node[6].core_layer 	interests[6] 	20131
scalar tree_4_3_u06_r11_network.node[6].core_layer 	data[6] 	20128
scalar tree_4_3_u06_r11_network.node[6].content_store 	p_hit[6] 	0
scalar tree_4_3_u06_r11_network.node[6].content_store 	hits[6] 	0
scalar tree_4_3_u06_r11_network.node[6].content_store 	misses[6] 	20131
scalar tree_4_3_u06_r11_network.node[6].content_store 	decision_yes[6] 	0
scalar tree_4_3_u06_r11_network.node[6].content_store 	decision_no[6] 	20128
scalar tree_4_3_u06_r11_network.node[6].content_store 	decision_ratio[6] 	0
scalar tree_4_3_u06_r11_network.node[7].core_layer 	interests[7] 	40804
scalar tree_4_3_u06_r11_network.node[7].core_layer 	data[7] 	40800
scalar tree_4_3_u06_r11_network.node[7].content_store 	p_hit[7] 	0
scalar tree_4_3_u06_r11_network.node[7].content_store 	hits[7] 	0
scalar tree_4_3_u06_r11_network.node[7].content_store 	misses[7] 	40804
scalar tree_4_3_u06_r11_network.node[7].content_store 	decision_yes[7] 	0
scalar tree_4_3_u06_r11_network.node[7].content_store 	decision_no[7] 	40800
scalar tree_4_3_u06_r11_network.node[7].content_store 	decision_ratio[7] 	0
scalar tree_4_3_u06_r11_network.node[8].core_layer 	interests[8] 	20425
scalar tree_4_3_u06_r11_network.node[8].core_layer 	data[8] 	20425
scalar tree_4_3_u06_r11_network.node[8].content_store 	p_hit[8] 	0
scalar tree_4_3_u06_r11_network.node[8].content_store 	hits[8] 	0
scalar tree_4_3_u06_r11_network.node[8].content_store 	misses[8] 	20425
scalar tree_4_3_u06_r11_network.node[8].content_store 	decision_yes[8] 	0
scalar tree_4_3_u06_r11_network.node[8].content_store 	decision_no[8] 	20425
scalar tree_4_3_u06_r11_network.node[8].content_store 	decision_ratio[8] 	0
scalar tree_4_3_u06_r11_network.node[9].core_layer 	interests[9] 	30608
scalar tree_4_3_u06_r11_network.node[9].core_layer 	data[9] 	30607
scalar tree_4_3_u06_r11_network.node[9].content_store 	p_hit[9] 	0
scalar tree_4_3_u06_r11_network.node[9].content_store 	hits[9] 	0
scalar tree_4_3_u06_r11_network.node[9].content_store 	misses[9] 	30608
scalar tree_4_3_u06_r11_network.node[9].content_store 	decision_yes[9] 	0
scalar tree_4_3_u06_r11_network.node[9].content_store 	decision_no[9] 	30607
scalar tree_4_3_u06_r11_network.node[9].content_store 	decision_ratio[9] 	0
scalar tree_4_3_u06_r11_network.node[10].core_layer 	interests[10] 	40166
scalar tree_4_3_u06_r11_network.node[10].core_layer 	data[10] 	40163
scalar tree_4_3_u06_r11_network.node[10].content_store 	p_hit[10] 	0
scalar tree_4_3_u06_r11_network.node[10].content_store 	hits[10] 	0
scalar tree_4_3_u06_r11_network.node[10].content_store 	misses[10] 	40166
scalar tree_4_3_u06_r11_network.node[10].content_store 	decision_yes[10] 	0
scalar tree_4_3_u06_r11_network.node[10].content_store 	decision_no[10] 	40163
scalar tree_4_3_u06_r11_network.node[10].content_store 	decision_ratio[10] 	0
scalar tree_4_3_u06_r11_network.node[11].core_layer 	interests[11] 	30425
scalar tree_4_3_u06_r11_network.node[11].core_layer 	data[11] 	30423
scalar tree_4_3_u06_r11_network.node[11].content_store 	p_hit[11] 	0
scalar tree_4_3_u06_r11_network.node[11].content_store 	hits[11] 	0
scalar tree_4_3_u06_r11_network.node[11].content_store 	misses[11] 	30425
scalar tree_4_3_u06_r11_network.node[11].content_store 	decision_yes[11] 	0
scalar tree_4_3_u06_r11_network.node[11].content_store 	decision_no[11] 	30423
scalar tree_4_3_u06_r11_network.node[11].content_store 	decision_ratio[11] 	0
scalar tree_4_3_u06_r11_network.node[12].core_layer 	interests[12] 	20087
scalar tree_4_3_u06_r11_network.node[12].core_layer 	data[12] 	20087
scalar tree_4_3_u06_r11_network.node[12].content_store 	p_hit[12] 	0
scalar tree_4_3_u06_r11_network.node[12].content_store 	hits[12] 	0
scalar tree_4_3_u06_r11_network.node[12].content_store 	misses[12] 	20087
scalar tree_4_3_u06_r11_network.node[12].content_store 	decision_yes[12] 	0
scalar tree_4_3_u06_r11_network.node[12].content_store 	decision_no[12] 	20087
scalar tree_4_3_u06_r11_network.node[12].content_store 	decision_ratio[12] 	0
scalar tree_4_3_u06_r11_network.node[13].core_layer 	interests[13] 	12019
scalar tree_4_3_u06_r11_network.node[13].core_layer 	data[13] 	10035
scalar tree_4_3_u06_r11_network.node[13].content_store 	p_hit[13] 	0.16498876778434
scalar tree_4_3_u06_r11_network.node[13].content_store 	hits[13] 	1983
scalar tree_4_3_u06_r11_network.node[13].content_store 	misses[13] 	10036
scalar tree_4_3_u06_r11_network.node[13].content_store 	decision_yes[13] 	10035
scalar tree_4_3_u06_r11_network.node[13].content_store 	decision_no[13] 	0
scalar tree_4_3_u06_r11_network.node[13].content_store 	decision_ratio[13] 	1
scalar tree_4_3_u06_r11_network.node[14].core_layer 	interests[14] 	12039
scalar tree_4_3_u06_r11_network.node[14].core_layer 	data[14] 	10166
scalar tree_4_3_u06_r11_network.node[14].content_store 	p_hit[14] 	0.1554115790348
scalar tree_4_3_u06_r11_network.node[14].content_store 	hits[14] 	1871
scalar tree_4_3_u06_r11_network.node[14].content_store 	misses[14] 	10168
scalar tree_4_3_u06_r11_network.node[14].content_store 	decision_yes[14] 	10166
scalar tree_4_3_u06_r11_network.node[14].content_store 	decision_no[14] 	0
scalar tree_4_3_u06_r11_network.node[14].content_store 	decision_ratio[14] 	1
scalar tree_4_3_u06_r11_network.node[15].core_layer 	interests[15] 	11930
scalar tree_4_3_u06_r11_network.node[15].core_layer 	data[15] 	10063
scalar tree_4_3_u06_r11_network.node[15].content_store 	p_hit[15] 	0.15641240569992
scalar tree_4_3_u06_r11_network.node[15].content_store 	hits[15] 	1866
scalar tree_4_3_u06_r11_network.node[15].content_store 	misses[15] 	10064
scalar tree_4_3_u06_r11_network.node[15].content_store 	decision_yes[15] 	10063
scalar tree_4_3_u06_r11_network.node[15].content_store 	decision_no[15] 	0
scalar tree_4_3_u06_r11_network.node[15].content_store 	decision_ratio[15] 	1
scalar tree_4_3_u06_r11_network.node[16].core_layer 	interests[16] 	11990
scalar tree_4_3_u06_r11_network.node[16].core_layer 	data[16] 	10118
scalar tree_4_3_u06_r11_network.node[16].content_store 	p_hit[16] 	0.15604670558799
scalar tree_4_3_u06_r11_network.node[16].content_store 	hits[16] 	1871
scalar tree_4_3_u06_r11_network.node[16].content_store 	misses[16] 	10119
scalar tree_4_3_u06_r11_network.node[16].content_store 	decision_yes[16] 	10118
scalar tree_4_3_u06_r11_network.node[16].content_store 	decision_no[16] 	0
scalar tree_4_3_u06_r11_network.node[16].content_store 	decision_ratio[16] 	1
scalar tree_4_3_u06_r11_network.node[17].core_layer 	interests[17] 	11838
scalar tree_4_3_u06_r11_network.node[17].core_layer 	data[17] 	9941
scalar tree_4_3_u06_r11_network.node[17].content_store 	p_hit[17] 	0.16007771583038
scalar tree_4_3_u06_r11_network.node[17].content_store 	hits[17] 	1895
scalar tree_4_3_u06_r11_network.node[17].content_store 	misses[17] 	9943
scalar tree_4_3_u06_r11_network.node[17].content_store 	decision_yes[17] 	9941
scalar tree_4_3_u06_r11_network.node[17].content_store 	decision_no[17] 	0
scalar tree_4_3_u06_r11_network.node[17].content_store 	decision_ratio[17] 	1
scalar tree_4_3_u06_r11_network.node[18].core_layer 	interests[18] 	11995
scalar tree_4_3_u06_r11_network.node[18].core_layer 	data[18] 	10137
scalar tree_4_3_u06_r11_network.node[18].content_store 	p_hit[18] 	0.15481450604419
scalar tree_4_3_u06_r11_network.node[18].content_store 	hits[18] 	1857
scalar tree_4_3_u06_r11_network.node[18].content_store 	misses[18] 	10138
scalar tree_4_3_u06_r11_network.node[18].content_store 	decision_yes[18] 	10137
scalar tree_4_3_u06_r11_network.node[18].content_store 	decision_no[18] 	0
scalar tree_4_3_u06_r11_network.node[18].content_store 	decision_ratio[18] 	1
scalar tree_4_3_u06_r11_network.node[19].core_layer 	interests[19] 	11882
scalar tree_4_3_u06_r11_network.node[19].core_layer 	data[19] 	10017
scalar tree_4_3_u06_r11_network.node[19].content_store 	p_hit[19] 	0.15670762497896
scalar tree_4_3_u06_r11_network.node[19].content_store 	hits[19] 	1862
scalar tree_4_3_u06_r11_network.node[19].content_store 	misses[19] 	10020
scalar tree_4_3_u06_r11_network.node[19].content_store 	decision_yes[19] 	10017
scalar tree_4_3_u06_r11_network.node[19].content_store 	decision_no[19] 	0
scalar tree_4_3_u06_r11_network.node[19].content_store 	decision_ratio[19] 	1
scalar tree_4_3_u06_r11_network.node[20].core_layer 	interests[20] 	11971
scalar tree_4_3_u06_r11_network.node[20].core_layer 	data[20] 	10131
scalar tree_4_3_u06_r11_network.node[20].content_store 	p_hit[20] 	0.15353771614736
scalar tree_4_3_u06_r11_network.node[20].content_store 	hits[20] 	1838
scalar tree_4_3_u06_r11_network.node[20].content_store 	misses[20] 	10133
scalar tree_4_3_u06_r11_network.node[20].content_store 	decision_yes[20] 	10131
scalar tree_4_3_u06_r11_network.node[20].content_store 	decision_no[20] 	0
scalar tree_4_3_u06_r11_network.node[20].content_store 	decision_ratio[20] 	1
scalar tree_4_3_u06_r11_network.node[21].core_layer 	interests[21] 	11917
scalar tree_4_3_u06_r11_network.node[21].core_layer 	data[21] 	9998
scalar tree_4_3_u06_r11_network.node[21].content_store 	p_hit[21] 	0.16094654694974
scalar tree_4_3_u06_r11_network.node[21].content_store 	hits[21] 	1918
scalar tree_4_3_u06_r11_network.node[21].content_store 	misses[21] 	9999
scalar tree_4_3_u06_r11_network.node[21].content_store 	decision_yes[21] 	9998
scalar tree_4_3_u06_r11_network.node[21].content_store 	decision_no[21] 	0
scalar tree_4_3_u06_r11_network.node[21].content_store 	decision_ratio[21] 	1
scalar tree_4_3_u06_r11_network.node[22].core_layer 	interests[22] 	12105
scalar tree_4_3_u06_r11_network.node[22].core_layer 	data[22] 	10243
scalar tree_4_3_u06_r11_network.node[22].content_store 	p_hit[22] 	0.15373812474184
scalar tree_4_3_u06_r11_network.node[22].content_store 	hits[22] 	1861
scalar tree_4_3_u06_r11_network.node[22].content_store 	misses[22] 	10244
scalar tree_4_3_u06_r11_network.node[22].content_store 	decision_yes[22] 	10243
scalar tree_4_3_u06_r11_network.node[22].content_store 	decision_no[22] 	0
scalar tree_4_3_u06_r11_network.node[22].content_store 	decision_ratio[22] 	1
scalar tree_4_3_u06_r11_network.node[23].core_layer 	interests[23] 	12119
scalar tree_4_3_u06_r11_network.node[23].core_layer 	data[23] 	10309
scalar tree_4_3_u06_r11_network.node[23].content_store 	p_hit[23] 	0.14935225678686
scalar tree_4_3_u06_r11_network.node[23].content_store 	hits[23] 	1810
scalar tree_4_3_u06_r11_network.node[23].content_store 	misses[23] 	10309
scalar tree_4_3_u06_r11_network.node[23].content_store 	decision_yes[23] 	10309
scalar tree_4_3_u06_r11_network.node[23].content_store 	decision_no[23] 	0
scalar tree_4_3_u06_r11_network.node[23].content_store 	decision_ratio[23] 	1
scalar tree_4_3_u06_r11_network.node[24].core_layer 	interests[24] 	12024
scalar tree_4_3_u06_r11_network.node[24].core_layer 	data[24] 	10160
scalar tree_4_3_u06_r11_network.node[24].content_store 	p_hit[24] 	0.15485695276114
scalar tree_4_3_u06_r11_network.node[24].content_store 	hits[24] 	1862
scalar tree_4_3_u06_r11_network.node[24].content_store 	misses[24] 	10162
scalar tree_4_3_u06_r11_network.node[24].content_store 	decision_yes[24] 	10160
scalar tree_4_3_u06_r11_network.node[24].content_store 	decision_no[24] 	0
scalar tree_4_3_u06_r11_network.node[24].content_store 	decision_ratio[24] 	1
scalar tree_4_3_u06_r11_network.node[25].core_layer 	interests[25] 	11860
scalar tree_4_3_u06_r11_network.node[25].core_layer 	data[25] 	10092
scalar tree_4_3_u06_r11_network.node[25].content_store 	p_hit[25] 	0.14907251264755
scalar tree_4_3_u06_r11_network.node[25].content_store 	hits[25] 	1768
scalar tree_4_3_u06_r11_network.node[25].content_store 	misses[25] 	10092
scalar tree_4_3_u06_r11_network.node[25].content_store 	decision_yes[25] 	10092
scalar tree_4_3_u06_r11_network.node[25].content_store 	decision_no[25] 	0
scalar tree_4_3_u06_r11_network.node[25].content_store 	decision_ratio[25] 	1
scalar tree_4_3_u06_r11_network.node[26].core_layer 	interests[26] 	12212
scalar tree_4_3_u06_r11_network.node[26].core_layer 	data[26] 	10272
scalar tree_4_3_u06_r11_network.node[26].content_store 	p_hit[26] 	0.1586963642319
scalar tree_4_3_u06_r11_network.node[26].content_store 	hits[26] 	1938
scalar tree_4_3_u06_r11_network.node[26].content_store 	misses[26] 	10274
scalar tree_4_3_u06_r11_network.node[26].content_store 	decision_yes[26] 	10272
scalar tree_4_3_u06_r11_network.node[26].content_store 	decision_no[26] 	0
scalar tree_4_3_u06_r11_network.node[26].content_store 	decision_ratio[26] 	1
scalar tree_4_3_u06_r11_network.node[27].core_layer 	interests[27] 	12021
scalar tree_4_3_u06_r11_network.node[27].core_layer 	data[27] 	10153
scalar tree_4_3_u06_r11_network.node[27].content_store 	p_hit[27] 	0.15522835038682
scalar tree_4_3_u06_r11_network.node[27].content_store 	hits[27] 	1866
scalar tree_4_3_u06_r11_network.node[27].content_store 	misses[27] 	10155
scalar tree_4_3_u06_r11_network.node[27].content_store 	decision_yes[27] 	10153
scalar tree_4_3_u06_r11_network.node[27].content_store 	decision_no[27] 	0
scalar tree_4_3_u06_r11_network.node[27].content_store 	decision_ratio[27] 	1
scalar tree_4_3_u06_r11_network.node[28].core_layer 	interests[28] 	11998
scalar tree_4_3_u06_r11_network.node[28].core_layer 	data[28] 	10132
scalar tree_4_3_u06_r11_network.node[28].content_store 	p_hit[28] 	0.15535922653776
scalar tree_4_3_u06_r11_network.node[28].content_store 	hits[28] 	1864
scalar tree_4_3_u06_r11_network.node[28].content_store 	misses[28] 	10134
scalar tree_4_3_u06_r11_network.node[28].content_store 	decision_yes[28] 	10132
scalar tree_4_3_u06_r11_network.node[28].content_store 	decision_no[28] 	0
scalar tree_4_3_u06_r11_network.node[28].content_store 	decision_ratio[28] 	1
scalar tree_4_3_u06_r11_network.node[29].core_layer 	interests[29] 	12072
scalar tree_4_3_u06_r11_network.node[29].core_layer 	data[29] 	10171
scalar tree_4_3_u06_r11_network.node[29].content_store 	p_hit[29] 	0.15747183565275
scalar tree_4_3_u06_r11_network.node[29].content_store 	hits[29] 	1901
scalar tree_4_3_u06_r11_network.node[29].content_store 	misses[29] 	10171
scalar tree_4_3_u06_r11_network.node[29].content_store 	decision_yes[29] 	10171
scalar tree_4_3_u06_r11_network.node[29].content_store 	decision_no[29] 	0
scalar tree_4_3_u06_r11_network.node[29].content_store 	decision_ratio[29] 	1
scalar tree_4_3_u06_r11_network.node[30].core_layer 	interests[30] 	12183
scalar tree_4_3_u06_r11_network.node[30].core_layer 	data[30] 	10304
scalar tree_4_3_u06_r11_network.node[30].content_store 	p_hit[30] 	0.15414922432898
scalar tree_4_3_u06_r11_network.node[30].content_store 	hits[30] 	1878
scalar tree_4_3_u06_r11_network.node[30].content_store 	misses[30] 	10305
scalar tree_4_3_u06_r11_network.node[30].content_store 	decision_yes[30] 	10304
scalar tree_4_3_u06_r11_network.node[30].content_store 	decision_no[30] 	0
scalar tree_4_3_u06_r11_network.node[30].content_store 	decision_ratio[30] 	1
scalar tree_4_3_u06_r11_network.node[31].core_layer 	interests[31] 	11945
scalar tree_4_3_u06_r11_network.node[31].core_layer 	data[31] 	10092
scalar tree_4_3_u06_r11_network.node[31].content_store 	p_hit[31] 	0.15521138551695
scalar tree_4_3_u06_r11_network.node[31].content_store 	hits[31] 	1854
scalar tree_4_3_u06_r11_network.node[31].content_store 	misses[31] 	10091
scalar tree_4_3_u06_r11_network.node[31].content_store 	decision_yes[31] 	10092
scalar tree_4_3_u06_r11_network.node[31].content_store 	decision_no[31] 	0
scalar tree_4_3_u06_r11_network.node[31].content_store 	decision_ratio[31] 	1
scalar tree_4_3_u06_r11_network.node[32].core_layer 	interests[32] 	11862
scalar tree_4_3_u06_r11_network.node[32].core_layer 	data[32] 	10039
scalar tree_4_3_u06_r11_network.node[32].content_store 	p_hit[32] 	0.15376833586242
scalar tree_4_3_u06_r11_network.node[32].content_store 	hits[32] 	1824
scalar tree_4_3_u06_r11_network.node[32].content_store 	misses[32] 	10038
scalar tree_4_3_u06_r11_network.node[32].content_store 	decision_yes[32] 	10039
scalar tree_4_3_u06_r11_network.node[32].content_store 	decision_no[32] 	0
scalar tree_4_3_u06_r11_network.node[32].content_store 	decision_ratio[32] 	1
scalar tree_4_3_u06_r11_network.node[33].core_layer 	interests[33] 	11790
scalar tree_4_3_u06_r11_network.node[33].core_layer 	data[33] 	9860
scalar tree_4_3_u06_r11_network.node[33].content_store 	p_hit[33] 	0.16361323155216
scalar tree_4_3_u06_r11_network.node[33].content_store 	hits[33] 	1929
scalar tree_4_3_u06_r11_network.node[33].content_store 	misses[33] 	9861
scalar tree_4_3_u06_r11_network.node[33].content_store 	decision_yes[33] 	9860
scalar tree_4_3_u06_r11_network.node[33].content_store 	decision_no[33] 	0
scalar tree_4_3_u06_r11_network.node[33].content_store 	decision_ratio[33] 	1
scalar tree_4_3_u06_r11_network.node[34].core_layer 	interests[34] 	12045
scalar tree_4_3_u06_r11_network.node[34].core_layer 	data[34] 	10177
scalar tree_4_3_u06_r11_network.node[34].content_store 	p_hit[34] 	0.15491905354919
scalar tree_4_3_u06_r11_network.node[34].content_store 	hits[34] 	1866
scalar tree_4_3_u06_r11_network.node[34].content_store 	misses[34] 	10179
scalar tree_4_3_u06_r11_network.node[34].content_store 	decision_yes[34] 	10177
scalar tree_4_3_u06_r11_network.node[34].content_store 	decision_no[34] 	0
scalar tree_4_3_u06_r11_network.node[34].content_store 	decision_ratio[34] 	1
scalar tree_4_3_u06_r11_network.node[35].core_layer 	interests[35] 	12055
scalar tree_4_3_u06_r11_network.node[35].core_layer 	data[35] 	10102
scalar tree_4_3_u06_r11_network.node[35].content_store 	p_hit[35] 	0.16200746578183
scalar tree_4_3_u06_r11_network.node[35].content_store 	hits[35] 	1953
scalar tree_4_3_u06_r11_network.node[35].content_store 	misses[35] 	10102
scalar tree_4_3_u06_r11_network.node[35].content_store 	decision_yes[35] 	10102
scalar tree_4_3_u06_r11_network.node[35].content_store 	decision_no[35] 	0
scalar tree_4_3_u06_r11_network.node[35].content_store 	decision_ratio[35] 	1
scalar tree_4_3_u06_r11_network.node[36].core_layer 	interests[36] 	11916
scalar tree_4_3_u06_r11_network.node[36].core_layer 	data[36] 	10041
scalar tree_4_3_u06_r11_network.node[36].content_store 	p_hit[36] 	0.15726753944277
scalar tree_4_3_u06_r11_network.node[36].content_store 	hits[36] 	1874
scalar tree_4_3_u06_r11_network.node[36].content_store 	misses[36] 	10042
scalar tree_4_3_u06_r11_network.node[36].content_store 	decision_yes[36] 	10041
scalar tree_4_3_u06_r11_network.node[36].content_store 	decision_no[36] 	0
scalar tree_4_3_u06_r11_network.node[36].content_store 	decision_ratio[36] 	1
scalar tree_4_3_u06_r11_network.node[37].core_layer 	interests[37] 	12010
scalar tree_4_3_u06_r11_network.node[37].core_layer 	data[37] 	10129
scalar tree_4_3_u06_r11_network.node[37].content_store 	p_hit[37] 	0.15653621981682
scalar tree_4_3_u06_r11_network.node[37].content_store 	hits[37] 	1880
scalar tree_4_3_u06_r11_network.node[37].content_store 	misses[37] 	10130
scalar tree_4_3_u06_r11_network.node[37].content_store 	decision_yes[37] 	10129
scalar tree_4_3_u06_r11_network.node[37].content_store 	decision_no[37] 	0
scalar tree_4_3_u06_r11_network.node[37].content_store 	decision_ratio[37] 	1
scalar tree_4_3_u06_r11_network.node[38].core_layer 	interests[38] 	12126
scalar tree_4_3_u06_r11_network.node[38].core_layer 	data[38] 	10282
scalar tree_4_3_u06_r11_network.node[38].content_store 	p_hit[38] 	0.15206993237671
scalar tree_4_3_u06_r11_network.node[38].content_store 	hits[38] 	1844
scalar tree_4_3_u06_r11_network.node[38].content_store 	misses[38] 	10282
scalar tree_4_3_u06_r11_network.node[38].content_store 	decision_yes[38] 	10282
scalar tree_4_3_u06_r11_network.node[38].content_store 	decision_no[38] 	0
scalar tree_4_3_u06_r11_network.node[38].content_store 	decision_ratio[38] 	1
scalar tree_4_3_u06_r11_network.node[39].core_layer 	interests[39] 	11825
scalar tree_4_3_u06_r11_network.node[39].core_layer 	data[39] 	9958
scalar tree_4_3_u06_r11_network.node[39].content_store 	p_hit[39] 	0.15771670190275
scalar tree_4_3_u06_r11_network.node[39].content_store 	hits[39] 	1865
scalar tree_4_3_u06_r11_network.node[39].content_store 	misses[39] 	9960
scalar tree_4_3_u06_r11_network.node[39].content_store 	decision_yes[39] 	9958
scalar tree_4_3_u06_r11_network.node[39].content_store 	decision_no[39] 	0
scalar tree_4_3_u06_r11_network.node[39].content_store 	decision_ratio[39] 	1
scalar tree_4_3_u06_r11_network.client[13] 	hdistance[13] 	3.3399900149775
scalar tree_4_3_u06_r11_network.client[13] 	downloads[13] 	12018
scalar tree_4_3_u06_r11_network.client[13] 	avg_time[13] 	0.005009112531
scalar tree_4_3_u06_r11_network.client[14] 	hdistance[14] 	3.3782503946166
scalar tree_4_3_u06_r11_network.client[14] 	downloads[14] 	12037
scalar tree_4_3_u06_r11_network.client[14] 	avg_time[14] 	0.00506606436
scalar tree_4_3_u06_r11_network.client[15] 	hdistance[15] 	3.3742979294157
scalar tree_4_3_u06_r11_network.client[15] 	downloads[15] 	11929
scalar tree_4_3_u06_r11_network.client[15] 	avg_time[15] 	0.005060938244
scalar tree_4_3_u06_r11_network.client[16] 	hdistance[16] 	3.3757611143548
scalar tree_4_3_u06_r11_network.client[16] 	downloads[16] 	11989
scalar tree_4_3_u06_r11_network.client[16] 	avg_time[16] 	0.005062724916
scalar tree_4_3_u06_r11_network.client[17] 	hdistance[17] 	3.3595809395066
scalar tree_4_3_u06_r11_network.client[17] 	downloads[17] 	11836
scalar tree_4_3_u06_r11_network.client[17] 	avg_time[17] 	0.005038817086
scalar tree_4_3_u06_r11_network.client[18] 	hdistance[18] 	3.3806903451726
scalar tree_4_3_u06_r11_network.client[18] 	downloads[18] 	11994
scalar tree_4_3_u06_r11_network.client[18] 	avg_time[18] 	0.00507077897
scalar tree_4_3_u06_r11_network.client[19] 	hdistance[19] 	3.3730111962286
scalar tree_4_3_u06_r11_network.client[19] 	downloads[19] 	11879
scalar tree_4_3_u06_r11_network.client[19] 	avg_time[19] 	0.005059006376
scalar tree_4_3_u06_r11_network.client[20] 	hdistance[20] 	3.3857465118222
scalar tree_4_3_u06_r11_network.client[20] 	downloads[20] 	11969
scalar tree_4_3_u06_r11_network.client[20] 	avg_time[20] 	0.005078616769
scalar tree_4_3_u06_r11_network.client[21] 	hdistance[21] 	3.3561597851628
scalar tree_4_3_u06_r11_network.client[21] 	downloads[21] 	11916
scalar tree_4_3_u06_r11_network.client[21] 	avg_time[21] 	0.005033447459
scalar tree_4_3_u06_r11_network.client[22] 	hdistance[22] 	3.3849966953073
scalar tree_4_3_u06_r11_network.client[22] 	downloads[22] 	12104
scalar tree_4_3_u06_r11_network.client[22] 	avg_time[22] 	0.005077193403
scalar tree_4_3_u06_r11_network.client[23] 	hdistance[23] 	3.4025909728525
scalar tree_4_3_u06_r11_network.client[23] 	downloads[23] 	12119
scalar tree_4_3_u06_r11_network.client[23] 	avg_time[23] 	0.005103414696
scalar tree_4_3_u06_r11_network.client[24] 	hdistance[24] 	3.3804691399102
scalar tree_4_3_u06_r11_network.client[24] 	downloads[24] 	12022
scalar tree_4_3_u06_r11_network.client[24] 	avg_time[24] 	0.005070627922
scalar tree_4_3_u06_r11_network.client[25] 	hdistance[25] 	3.4037099494098
scalar tree_4_3_u06_r11_network.client[25] 	downloads[25] 	11860
scalar tree_4_3_u06_r11_network.client[25] 	avg_time[25] 	0.005105296312
scalar tree_4_3_u06_r11_network.client[26] 	hdistance[26] 	3.3651105651106
scalar tree_4_3_u06_r11_network.client[26] 	downloads[26] 	12210
scalar tree_4_3_u06_r11_network.client[26] 	avg_time[26] 	0.00504758621
scalar tree_4_3_u06_r11_network.client[27] 	hdistance[27] 	3.3789832764789
scalar tree_4_3_u06_r11_network.client[27] 	downloads[27] 	12019
scalar tree_4_3_u06_r11_network.client[27] 	avg_time[27] 	0.005068289229
scalar tree_4_3_u06_r11_network.client[28] 	hdistance[28] 	3.3784594864955
scalar tree_4_3_u06_r11_network.client[28] 	downloads[28] 	11996
scalar tree_4_3_u06_r11_network.client[28] 	avg_time[28] 	0.005067665399
scalar tree_4_3_u06_r11_network.client[29] 	hdistance[29] 	3.370112657389
scalar tree_4_3_u06_r11_network.client[29] 	downloads[29] 	12072
scalar tree_4_3_u06_r11_network.client[29] 	avg_time[29] 	0.005055165978
scalar tree_4_3_u06_r11_network.client[30] 	hdistance[30] 	3.3833524872763
scalar tree_4_3_u06_r11_network.client[30] 	downloads[30] 	12182
scalar tree_4_3_u06_r11_network.client[30] 	avg_time[30] 	0.005075015564
scalar tree_4_3_u06_r11_network.client[31] 	hdistance[31] 	3.3792064289302
scalar tree_4_3_u06_r11_network.client[31] 	downloads[31] 	11946
scalar tree_4_3_u06_r11_network.client[31] 	avg_time[31] 	0.00506852167
scalar tree_4_3_u06_r11_network.client[32] 	hdistance[32] 	3.3849785045941
scalar tree_4_3_u06_r11_network.client[32] 	downloads[32] 	11863
scalar tree_4_3_u06_r11_network.client[32] 	avg_time[32] 	0.00507724314
scalar tree_4_3_u06_r11_network.client[33] 	hdistance[33] 	3.3454915599287
scalar tree_4_3_u06_r11_network.client[33] 	downloads[33] 	11789
scalar tree_4_3_u06_r11_network.client[33] 	avg_time[33] 	0.005017344788
scalar tree_4_3_u06_r11_network.client[34] 	hdistance[34] 	3.3802208751972
scalar tree_4_3_u06_r11_network.client[34] 	downloads[34] 	12043
scalar tree_4_3_u06_r11_network.client[34] 	avg_time[34] 	0.005069977882
scalar tree_4_3_u06_r11_network.client[35] 	hdistance[35] 	3.3519701368727
scalar tree_4_3_u06_r11_network.client[35] 	downloads[35] 	12055
scalar tree_4_3_u06_r11_network.client[35] 	avg_time[35] 	0.00502767577
scalar tree_4_3_u06_r11_network.client[36] 	hdistance[36] 	3.3708770457407
scalar tree_4_3_u06_r11_network.client[36] 	downloads[36] 	11915
scalar tree_4_3_u06_r11_network.client[36] 	avg_time[36] 	0.00505625642
scalar tree_4_3_u06_r11_network.client[37] 	hdistance[37] 	3.3738029810975
scalar tree_4_3_u06_r11_network.client[37] 	downloads[37] 	12009
scalar tree_4_3_u06_r11_network.client[37] 	avg_time[37] 	0.005060402695
scalar tree_4_3_u06_r11_network.client[38] 	hdistance[38] 	3.3917202704932
scalar tree_4_3_u06_r11_network.client[38] 	downloads[38] 	12126
scalar tree_4_3_u06_r11_network.client[38] 	avg_time[38] 	0.005087497101
scalar tree_4_3_u06_r11_network.client[39] 	hdistance[39] 	3.3690264738222
scalar tree_4_3_u06_r11_network.client[39] 	downloads[39] 	11823
scalar tree_4_3_u06_r11_network.client[39] 	avg_time[39] 	0.005053130343
