version 2
run General-132-20160818-22:46:52-32642
attr a 0.9
attr cd lce
attr configname General
attr cr lru
attr datetime 20160818-22:46:52
attr experiment General
attr fsize 1
attr inifile hw5115/scenario_A/Edge.ini
attr iterationvars "$name=tree_4_3, $un=06, $rep=13, $scenario=Edge, $cd=lce, $cr=lru, $fsize=1, $a=0.9, $sl=spr, $ttl=1000, $variance=0.05"
attr iterationvars2 "$name=tree_4_3, $un=06, $rep=13, $scenario=Edge, $cd=lce, $cr=lru, $fsize=1, $a=0.9, $sl=spr, $ttl=1000, $variance=0.05, $repetition=0"
attr measurement "$name=tree_4_3, $un=06, $rep=13, $scenario=Edge, $cd=lce, $cr=lru, $fsize=1, $a=0.9, $sl=spr, $ttl=1000, $variance=0.05"
attr name tree_4_3
attr network networks.${name}_u${un}_r${rep}_network
attr processid 32642
attr rep 13
attr repetition 0
attr replication #0
attr resultdir results
attr runnumber 132
attr scenario Edge
attr seedset 13
attr sl spr
attr ttl 1000
attr un 06
attr variance 0.05

scalar . 	a 	0.9
scalar . 	fsize 	1
scalar . 	rep 	13
scalar . 	ttl 	1000
scalar . 	un 	06
scalar . 	variance 	0.05
scalar tree_4_3_u06_r13_network.content_distribution 	repo-0 	0
scalar tree_4_3_u06_r13_network.content_distribution 	client-0 	13
scalar tree_4_3_u06_r13_network.content_distribution 	client-1 	14
scalar tree_4_3_u06_r13_network.content_distribution 	client-2 	15
scalar tree_4_3_u06_r13_network.content_distribution 	client-3 	16
scalar tree_4_3_u06_r13_network.content_distribution 	client-4 	17
scalar tree_4_3_u06_r13_network.content_distribution 	client-5 	18
scalar tree_4_3_u06_r13_network.content_distribution 	client-6 	19
scalar tree_4_3_u06_r13_network.content_distribution 	client-7 	20
scalar tree_4_3_u06_r13_network.content_distribution 	client-8 	21
scalar tree_4_3_u06_r13_network.content_distribution 	client-9 	22
scalar tree_4_3_u06_r13_network.content_distribution 	client-10 	23
scalar tree_4_3_u06_r13_network.content_distribution 	client-11 	24
scalar tree_4_3_u06_r13_network.content_distribution 	client-12 	25
scalar tree_4_3_u06_r13_network.content_distribution 	client-13 	26
scalar tree_4_3_u06_r13_network.content_distribution 	client-14 	27
scalar tree_4_3_u06_r13_network.content_distribution 	client-15 	28
scalar tree_4_3_u06_r13_network.content_distribution 	client-16 	29
scalar tree_4_3_u06_r13_network.content_distribution 	client-17 	30
scalar tree_4_3_u06_r13_network.content_distribution 	client-18 	31
scalar tree_4_3_u06_r13_network.content_distribution 	client-19 	32
scalar tree_4_3_u06_r13_network.content_distribution 	client-20 	33
scalar tree_4_3_u06_r13_network.content_distribution 	client-21 	34
scalar tree_4_3_u06_r13_network.content_distribution 	client-22 	35
scalar tree_4_3_u06_r13_network.content_distribution 	client-23 	36
scalar tree_4_3_u06_r13_network.content_distribution 	client-24 	37
scalar tree_4_3_u06_r13_network.content_distribution 	client-25 	38
scalar tree_4_3_u06_r13_network.content_distribution 	client-26 	39
scalar tree_4_3_u06_r13_network.content_distribution 	repo-0_card 	100000
scalar tree_4_3_u06_r13_network.content_distribution 	repo-0_price 	0
scalar tree_4_3_u06_r13_network.statistics 	stabilization_time 	490.7
scalar tree_4_3_u06_r13_network.statistics 	p_hit 	0.10528743198354
scalar tree_4_3_u06_r13_network.statistics 	interests 	28574.975
scalar tree_4_3_u06_r13_network.statistics 	data 	20483.85
scalar tree_4_3_u06_r13_network.statistics 	hdistance 	3.376030009043
scalar tree_4_3_u06_r13_network.statistics 	avg_time 	0.005063701151
scalar tree_4_3_u06_r13_network.statistics 	downloads 	323619
scalar tree_4_3_u06_r13_network.statistics 	total_cost 	0
scalar tree_4_3_u06_r13_network.statistics 	total_replicas 	100000
scalar tree_4_3_u06_r13_network.statistics 	inner_hit 	0.15613112950723
scalar tree_4_3_u06_r13_network.node[0].core_layer 	interests[0] 	273092
scalar tree_4_3_u06_r13_network.node[0].core_layer 	repo_load[0] 	273092
scalar tree_4_3_u06_r13_network.node[0].core_layer 	data[0] 	0
scalar tree_4_3_u06_r13_network.node[0].core_layer 	repo_int[0] 	273092
scalar tree_4_3_u06_r13_network.node[0].content_store 	p_hit[0] 	0
scalar tree_4_3_u06_r13_network.node[0].content_store 	hits[0] 	0
scalar tree_4_3_u06_r13_network.node[0].content_store 	misses[0] 	273092
scalar tree_4_3_u06_r13_network.node[0].content_store 	decision_yes[0] 	0
scalar tree_4_3_u06_r13_network.node[0].content_store 	decision_no[0] 	273092
scalar tree_4_3_u06_r13_network.node[0].content_store 	decision_ratio[0] 	0
scalar tree_4_3_u06_r13_network.node[1].core_layer 	interests[1] 	171872
scalar tree_4_3_u06_r13_network.node[1].core_layer 	data[1] 	171841
scalar tree_4_3_u06_r13_network.node[1].content_store 	p_hit[1] 	0
scalar tree_4_3_u06_r13_network.node[1].content_store 	hits[1] 	0
scalar tree_4_3_u06_r13_network.node[1].content_store 	misses[1] 	171872
scalar tree_4_3_u06_r13_network.node[1].content_store 	decision_yes[1] 	0
scalar tree_4_3_u06_r13_network.node[1].content_store 	decision_no[1] 	171841
scalar tree_4_3_u06_r13_network.node[1].content_store 	decision_ratio[1] 	0
scalar tree_4_3_u06_r13_network.node[2].core_layer 	interests[2] 	40403
scalar tree_4_3_u06_r13_network.node[2].core_layer 	data[2] 	40403
scalar tree_4_3_u06_r13_network.node[2].content_store 	p_hit[2] 	0
scalar tree_4_3_u06_r13_network.node[2].content_store 	hits[2] 	0
scalar tree_4_3_u06_r13_network.node[2].content_store 	misses[2] 	40403
scalar tree_4_3_u06_r13_network.node[2].content_store 	decision_yes[2] 	0
scalar tree_4_3_u06_r13_network.node[2].content_store 	decision_no[2] 	40403
scalar tree_4_3_u06_r13_network.node[2].content_store 	decision_ratio[2] 	0
scalar tree_4_3_u06_r13_network.node[3].core_layer 	interests[3] 	60850
scalar tree_4_3_u06_r13_network.node[3].core_layer 	data[3] 	60848
scalar tree_4_3_u06_r13_network.node[3].content_store 	p_hit[3] 	0
scalar tree_4_3_u06_r13_network.node[3].content_store 	hits[3] 	0
scalar tree_4_3_u06_r13_network.node[3].content_store 	misses[3] 	60850
scalar tree_4_3_u06_r13_network.node[3].content_store 	decision_yes[3] 	0
scalar tree_4_3_u06_r13_network.node[3].content_store 	decision_no[3] 	60848
scalar tree_4_3_u06_r13_network.node[3].content_store 	decision_ratio[3] 	0
scalar tree_4_3_u06_r13_network.node[4].core_layer 	interests[4] 	50559
scalar tree_4_3_u06_r13_network.node[4].core_layer 	data[4] 	50553
scalar tree_4_3_u06_r13_network.node[4].content_store 	p_hit[4] 	0
scalar tree_4_3_u06_r13_network.node[4].content_store 	hits[4] 	0
scalar tree_4_3_u06_r13_network.node[4].content_store 	misses[4] 	50559
scalar tree_4_3_u06_r13_network.node[4].content_store 	decision_yes[4] 	0
scalar tree_4_3_u06_r13_network.node[4].content_store 	decision_no[4] 	50553
scalar tree_4_3_u06_r13_network.node[4].content_store 	decision_ratio[4] 	0
scalar tree_4_3_u06_r13_network.node[5].core_layer 	interests[5] 	20225
scalar tree_4_3_u06_r13_network.node[5].core_layer 	data[5] 	20225
scalar tree_4_3_u06_r13_network.node[5].content_store 	p_hit[5] 	0
scalar tree_4_3_u06_r13_network.node[5].content_store 	hits[5] 	0
scalar tree_4_3_u06_r13_network.node[5].content_store 	misses[5] 	20225
scalar tree_4_3_u06_r13_network.node[5].content_store 	decision_yes[5] 	0
scalar tree_4_3_u06_r13_network.node[5].content_store 	decision_no[5] 	20225
scalar tree_4_3_u06_r13_network.node[5].content_store 	decision_ratio[5] 	0
scalar tree_4_3_u06_r13_network.node[6].core_layer 	interests[6] 	20261
scalar tree_4_3_u06_r13_network.node[6].core_layer 	data[6] 	20261
scalar tree_4_3_u06_r13_network.node[6].content_store 	p_hit[6] 	0
scalar tree_4_3_u06_r13_network.node[6].content_store 	hits[6] 	0
scalar tree_4_3_u06_r13_network.node[6].content_store 	misses[6] 	20261
scalar tree_4_3_u06_r13_network.node[6].content_store 	decision_yes[6] 	0
scalar tree_4_3_u06_r13_network.node[6].content_store 	decision_no[6] 	20261
scalar tree_4_3_u06_r13_network.node[6].content_store 	decision_ratio[6] 	0
scalar tree_4_3_u06_r13_network.node[7].core_layer 	interests[7] 	50520
scalar tree_4_3_u06_r13_network.node[7].core_layer 	data[7] 	50513
scalar tree_4_3_u06_r13_network.node[7].content_store 	p_hit[7] 	0
scalar tree_4_3_u06_r13_network.node[7].content_store 	hits[7] 	0
scalar tree_4_3_u06_r13_network.node[7].content_store 	misses[7] 	50520
scalar tree_4_3_u06_r13_network.node[7].content_store 	decision_yes[7] 	0
scalar tree_4_3_u06_r13_network.node[7].content_store 	decision_no[7] 	50513
scalar tree_4_3_u06_r13_network.node[7].content_store 	decision_ratio[7] 	0
scalar tree_4_3_u06_r13_network.node[8].core_layer 	interests[8] 	20088
scalar tree_4_3_u06_r13_network.node[8].core_layer 	data[8] 	20088
scalar tree_4_3_u06_r13_network.node[8].content_store 	p_hit[8] 	0
scalar tree_4_3_u06_r13_network.node[8].content_store 	hits[8] 	0
scalar tree_4_3_u06_r13_network.node[8].content_store 	misses[8] 	20088
scalar tree_4_3_u06_r13_network.node[8].content_store 	decision_yes[8] 	0
scalar tree_4_3_u06_r13_network.node[8].content_store 	decision_no[8] 	20088
scalar tree_4_3_u06_r13_network.node[8].content_store 	decision_ratio[8] 	0
scalar tree_4_3_u06_r13_network.node[9].core_layer 	interests[9] 	20315
scalar tree_4_3_u06_r13_network.node[9].core_layer 	data[9] 	20315
scalar tree_4_3_u06_r13_network.node[9].content_store 	p_hit[9] 	0
scalar tree_4_3_u06_r13_network.node[9].content_store 	hits[9] 	0
scalar tree_4_3_u06_r13_network.node[9].content_store 	misses[9] 	20315
scalar tree_4_3_u06_r13_network.node[9].content_store 	decision_yes[9] 	0
scalar tree_4_3_u06_r13_network.node[9].content_store 	decision_no[9] 	20315
scalar tree_4_3_u06_r13_network.node[9].content_store 	decision_ratio[9] 	0
scalar tree_4_3_u06_r13_network.node[10].core_layer 	interests[10] 	30319
scalar tree_4_3_u06_r13_network.node[10].core_layer 	data[10] 	30319
scalar tree_4_3_u06_r13_network.node[10].content_store 	p_hit[10] 	0
scalar tree_4_3_u06_r13_network.node[10].content_store 	hits[10] 	0
scalar tree_4_3_u06_r13_network.node[10].content_store 	misses[10] 	30319
scalar tree_4_3_u06_r13_network.node[10].content_store 	decision_yes[10] 	0
scalar tree_4_3_u06_r13_network.node[10].content_store 	decision_no[10] 	30319
scalar tree_4_3_u06_r13_network.node[10].content_store 	decision_ratio[10] 	0
scalar tree_4_3_u06_r13_network.node[11].core_layer 	interests[11] 	30697
scalar tree_4_3_u06_r13_network.node[11].core_layer 	data[11] 	30695
scalar tree_4_3_u06_r13_network.node[11].content_store 	p_hit[11] 	0
scalar tree_4_3_u06_r13_network.node[11].content_store 	hits[11] 	0
scalar tree_4_3_u06_r13_network.node[11].content_store 	misses[11] 	30697
scalar tree_4_3_u06_r13_network.node[11].content_store 	decision_yes[11] 	0
scalar tree_4_3_u06_r13_network.node[11].content_store 	decision_no[11] 	30695
scalar tree_4_3_u06_r13_network.node[11].content_store 	decision_ratio[11] 	0
scalar tree_4_3_u06_r13_network.node[12].core_layer 	interests[12] 	30156
scalar tree_4_3_u06_r13_network.node[12].core_layer 	data[12] 	30155
scalar tree_4_3_u06_r13_network.node[12].content_store 	p_hit[12] 	0
scalar tree_4_3_u06_r13_network.node[12].content_store 	hits[12] 	0
scalar tree_4_3_u06_r13_network.node[12].content_store 	misses[12] 	30156
scalar tree_4_3_u06_r13_network.node[12].content_store 	decision_yes[12] 	0
scalar tree_4_3_u06_r13_network.node[12].content_store 	decision_no[12] 	30155
scalar tree_4_3_u06_r13_network.node[12].content_store 	decision_ratio[12] 	0
scalar tree_4_3_u06_r13_network.node[13].core_layer 	interests[13] 	11904
scalar tree_4_3_u06_r13_network.node[13].core_layer 	data[13] 	10056
scalar tree_4_3_u06_r13_network.node[13].content_store 	p_hit[13] 	0.15507392473118
scalar tree_4_3_u06_r13_network.node[13].content_store 	hits[13] 	1846
scalar tree_4_3_u06_r13_network.node[13].content_store 	misses[13] 	10058
scalar tree_4_3_u06_r13_network.node[13].content_store 	decision_yes[13] 	10056
scalar tree_4_3_u06_r13_network.node[13].content_store 	decision_no[13] 	0
scalar tree_4_3_u06_r13_network.node[13].content_store 	decision_ratio[13] 	1
scalar tree_4_3_u06_r13_network.node[14].core_layer 	interests[14] 	12010
scalar tree_4_3_u06_r13_network.node[14].core_layer 	data[14] 	10090
scalar tree_4_3_u06_r13_network.node[14].content_store 	p_hit[14] 	0.15970024979184
scalar tree_4_3_u06_r13_network.node[14].content_store 	hits[14] 	1918
scalar tree_4_3_u06_r13_network.node[14].content_store 	misses[14] 	10092
scalar tree_4_3_u06_r13_network.node[14].content_store 	decision_yes[14] 	10090
scalar tree_4_3_u06_r13_network.node[14].content_store 	decision_no[14] 	0
scalar tree_4_3_u06_r13_network.node[14].content_store 	decision_ratio[14] 	1
scalar tree_4_3_u06_r13_network.node[15].core_layer 	interests[15] 	11915
scalar tree_4_3_u06_r13_network.node[15].core_layer 	data[15] 	10080
scalar tree_4_3_u06_r13_network.node[15].content_store 	p_hit[15] 	0.15400755350399
scalar tree_4_3_u06_r13_network.node[15].content_store 	hits[15] 	1835
scalar tree_4_3_u06_r13_network.node[15].content_store 	misses[15] 	10080
scalar tree_4_3_u06_r13_network.node[15].content_store 	decision_yes[15] 	10080
scalar tree_4_3_u06_r13_network.node[15].content_store 	decision_no[15] 	0
scalar tree_4_3_u06_r13_network.node[15].content_store 	decision_ratio[15] 	1
scalar tree_4_3_u06_r13_network.node[16].core_layer 	interests[16] 	11970
scalar tree_4_3_u06_r13_network.node[16].core_layer 	data[16] 	10181
scalar tree_4_3_u06_r13_network.node[16].content_store 	p_hit[16] 	0.14937343358396
scalar tree_4_3_u06_r13_network.node[16].content_store 	hits[16] 	1788
scalar tree_4_3_u06_r13_network.node[16].content_store 	misses[16] 	10182
scalar tree_4_3_u06_r13_network.node[16].content_store 	decision_yes[16] 	10181
scalar tree_4_3_u06_r13_network.node[16].content_store 	decision_no[16] 	0
scalar tree_4_3_u06_r13_network.node[16].content_store 	decision_ratio[16] 	1
scalar tree_4_3_u06_r13_network.node[17].core_layer 	interests[17] 	11982
scalar tree_4_3_u06_r13_network.node[17].core_layer 	data[17] 	10089
scalar tree_4_3_u06_r13_network.node[17].content_store 	p_hit[17] 	0.15790352194959
scalar tree_4_3_u06_r13_network.node[17].content_store 	hits[17] 	1892
scalar tree_4_3_u06_r13_network.node[17].content_store 	misses[17] 	10090
scalar tree_4_3_u06_r13_network.node[17].content_store 	decision_yes[17] 	10089
scalar tree_4_3_u06_r13_network.node[17].content_store 	decision_no[17] 	0
scalar tree_4_3_u06_r13_network.node[17].content_store 	decision_ratio[17] 	1
scalar tree_4_3_u06_r13_network.node[18].core_layer 	interests[18] 	12014
scalar tree_4_3_u06_r13_network.node[18].core_layer 	data[18] 	10135
scalar tree_4_3_u06_r13_network.node[18].content_store 	p_hit[18] 	0.15631762943233
scalar tree_4_3_u06_r13_network.node[18].content_store 	hits[18] 	1878
scalar tree_4_3_u06_r13_network.node[18].content_store 	misses[18] 	10136
scalar tree_4_3_u06_r13_network.node[18].content_store 	decision_yes[18] 	10135
scalar tree_4_3_u06_r13_network.node[18].content_store 	decision_no[18] 	0
scalar tree_4_3_u06_r13_network.node[18].content_store 	decision_ratio[18] 	1
scalar tree_4_3_u06_r13_network.node[19].core_layer 	interests[19] 	12016
scalar tree_4_3_u06_r13_network.node[19].core_layer 	data[19] 	10151
scalar tree_4_3_u06_r13_network.node[19].content_store 	p_hit[19] 	0.15520972037284
scalar tree_4_3_u06_r13_network.node[19].content_store 	hits[19] 	1865
scalar tree_4_3_u06_r13_network.node[19].content_store 	misses[19] 	10151
scalar tree_4_3_u06_r13_network.node[19].content_store 	decision_yes[19] 	10151
scalar tree_4_3_u06_r13_network.node[19].content_store 	decision_no[19] 	0
scalar tree_4_3_u06_r13_network.node[19].content_store 	decision_ratio[19] 	1
scalar tree_4_3_u06_r13_network.node[20].core_layer 	interests[20] 	12144
scalar tree_4_3_u06_r13_network.node[20].core_layer 	data[20] 	10277
scalar tree_4_3_u06_r13_network.node[20].content_store 	p_hit[20] 	0.15373847167325
scalar tree_4_3_u06_r13_network.node[20].content_store 	hits[20] 	1867
scalar tree_4_3_u06_r13_network.node[20].content_store 	misses[20] 	10277
scalar tree_4_3_u06_r13_network.node[20].content_store 	decision_yes[20] 	10277
scalar tree_4_3_u06_r13_network.node[20].content_store 	decision_no[20] 	0
scalar tree_4_3_u06_r13_network.node[20].content_store 	decision_ratio[20] 	1
scalar tree_4_3_u06_r13_network.node[21].core_layer 	interests[21] 	11931
scalar tree_4_3_u06_r13_network.node[21].core_layer 	data[21] 	9984
scalar tree_4_3_u06_r13_network.node[21].content_store 	p_hit[21] 	0.16310451764311
scalar tree_4_3_u06_r13_network.node[21].content_store 	hits[21] 	1946
scalar tree_4_3_u06_r13_network.node[21].content_store 	misses[21] 	9985
scalar tree_4_3_u06_r13_network.node[21].content_store 	decision_yes[21] 	9984
scalar tree_4_3_u06_r13_network.node[21].content_store 	decision_no[21] 	0
scalar tree_4_3_u06_r13_network.node[21].content_store 	decision_ratio[21] 	1
scalar tree_4_3_u06_r13_network.node[22].core_layer 	interests[22] 	12121
scalar tree_4_3_u06_r13_network.node[22].core_layer 	data[22] 	10229
scalar tree_4_3_u06_r13_network.node[22].content_store 	p_hit[22] 	0.15601023017903
scalar tree_4_3_u06_r13_network.node[22].content_store 	hits[22] 	1891
scalar tree_4_3_u06_r13_network.node[22].content_store 	misses[22] 	10230
scalar tree_4_3_u06_r13_network.node[22].content_store 	decision_yes[22] 	10229
scalar tree_4_3_u06_r13_network.node[22].content_store 	decision_no[22] 	0
scalar tree_4_3_u06_r13_network.node[22].content_store 	decision_ratio[22] 	1
scalar tree_4_3_u06_r13_network.node[23].core_layer 	interests[23] 	11997
scalar tree_4_3_u06_r13_network.node[23].core_layer 	data[23] 	10163
scalar tree_4_3_u06_r13_network.node[23].content_store 	p_hit[23] 	0.15278819704926
scalar tree_4_3_u06_r13_network.node[23].content_store 	hits[23] 	1833
scalar tree_4_3_u06_r13_network.node[23].content_store 	misses[23] 	10164
scalar tree_4_3_u06_r13_network.node[23].content_store 	decision_yes[23] 	10163
scalar tree_4_3_u06_r13_network.node[23].content_store 	decision_no[23] 	0
scalar tree_4_3_u06_r13_network.node[23].content_store 	decision_ratio[23] 	1
scalar tree_4_3_u06_r13_network.node[24].core_layer 	interests[24] 	11958
scalar tree_4_3_u06_r13_network.node[24].core_layer 	data[24] 	10137
scalar tree_4_3_u06_r13_network.node[24].content_store 	p_hit[24] 	0.15219936444221
scalar tree_4_3_u06_r13_network.node[24].content_store 	hits[24] 	1820
scalar tree_4_3_u06_r13_network.node[24].content_store 	misses[24] 	10138
scalar tree_4_3_u06_r13_network.node[24].content_store 	decision_yes[24] 	10137
scalar tree_4_3_u06_r13_network.node[24].content_store 	decision_no[24] 	0
scalar tree_4_3_u06_r13_network.node[24].content_store 	decision_ratio[24] 	1
scalar tree_4_3_u06_r13_network.node[25].core_layer 	interests[25] 	11972
scalar tree_4_3_u06_r13_network.node[25].core_layer 	data[25] 	10025
scalar tree_4_3_u06_r13_network.node[25].content_store 	p_hit[25] 	0.1625459405279
scalar tree_4_3_u06_r13_network.node[25].content_store 	hits[25] 	1946
scalar tree_4_3_u06_r13_network.node[25].content_store 	misses[25] 	10026
scalar tree_4_3_u06_r13_network.node[25].content_store 	decision_yes[25] 	10025
scalar tree_4_3_u06_r13_network.node[25].content_store 	decision_no[25] 	0
scalar tree_4_3_u06_r13_network.node[25].content_store 	decision_ratio[25] 	1
scalar tree_4_3_u06_r13_network.node[26].core_layer 	interests[26] 	11984
scalar tree_4_3_u06_r13_network.node[26].core_layer 	data[26] 	10094
scalar tree_4_3_u06_r13_network.node[26].content_store 	p_hit[26] 	0.15762683578104
scalar tree_4_3_u06_r13_network.node[26].content_store 	hits[26] 	1889
scalar tree_4_3_u06_r13_network.node[26].content_store 	misses[26] 	10095
scalar tree_4_3_u06_r13_network.node[26].content_store 	decision_yes[26] 	10094
scalar tree_4_3_u06_r13_network.node[26].content_store 	decision_no[26] 	0
scalar tree_4_3_u06_r13_network.node[26].content_store 	decision_ratio[26] 	1
scalar tree_4_3_u06_r13_network.node[27].core_layer 	interests[27] 	11861
scalar tree_4_3_u06_r13_network.node[27].core_layer 	data[27] 	9994
scalar tree_4_3_u06_r13_network.node[27].content_store 	p_hit[27] 	0.15732231683669
scalar tree_4_3_u06_r13_network.node[27].content_store 	hits[27] 	1866
scalar tree_4_3_u06_r13_network.node[27].content_store 	misses[27] 	9995
scalar tree_4_3_u06_r13_network.node[27].content_store 	decision_yes[27] 	9994
scalar tree_4_3_u06_r13_network.node[27].content_store 	decision_no[27] 	0
scalar tree_4_3_u06_r13_network.node[27].content_store 	decision_ratio[27] 	1
scalar tree_4_3_u06_r13_network.node[28].core_layer 	interests[28] 	11812
scalar tree_4_3_u06_r13_network.node[28].core_layer 	data[28] 	9966
scalar tree_4_3_u06_r13_network.node[28].content_store 	p_hit[28] 	0.15628174737555
scalar tree_4_3_u06_r13_network.node[28].content_store 	hits[28] 	1846
scalar tree_4_3_u06_r13_network.node[28].content_store 	misses[28] 	9966
scalar tree_4_3_u06_r13_network.node[28].content_store 	decision_yes[28] 	9966
scalar tree_4_3_u06_r13_network.node[28].content_store 	decision_no[28] 	0
scalar tree_4_3_u06_r13_network.node[28].content_store 	decision_ratio[28] 	1
scalar tree_4_3_u06_r13_network.node[29].core_layer 	interests[29] 	12081
scalar tree_4_3_u06_r13_network.node[29].core_layer 	data[29] 	10229
scalar tree_4_3_u06_r13_network.node[29].content_store 	p_hit[29] 	0.15321579339459
scalar tree_4_3_u06_r13_network.node[29].content_store 	hits[29] 	1851
scalar tree_4_3_u06_r13_network.node[29].content_store 	misses[29] 	10230
scalar tree_4_3_u06_r13_network.node[29].content_store 	decision_yes[29] 	10229
scalar tree_4_3_u06_r13_network.node[29].content_store 	decision_no[29] 	0
scalar tree_4_3_u06_r13_network.node[29].content_store 	decision_ratio[29] 	1
scalar tree_4_3_u06_r13_network.node[30].core_layer 	interests[30] 	11960
scalar tree_4_3_u06_r13_network.node[30].core_layer 	data[30] 	10086
scalar tree_4_3_u06_r13_network.node[30].content_store 	p_hit[30] 	0.1566889632107
scalar tree_4_3_u06_r13_network.node[30].content_store 	hits[30] 	1874
scalar tree_4_3_u06_r13_network.node[30].content_store 	misses[30] 	10086
scalar tree_4_3_u06_r13_network.node[30].content_store 	decision_yes[30] 	10086
scalar tree_4_3_u06_r13_network.node[30].content_store 	decision_no[30] 	0
scalar tree_4_3_u06_r13_network.node[30].content_store 	decision_ratio[30] 	1
scalar tree_4_3_u06_r13_network.node[31].core_layer 	interests[31] 	11972
scalar tree_4_3_u06_r13_network.node[31].core_layer 	data[31] 	10078
scalar tree_4_3_u06_r13_network.node[31].content_store 	p_hit[31] 	0.15811894420314
scalar tree_4_3_u06_r13_network.node[31].content_store 	hits[31] 	1893
scalar tree_4_3_u06_r13_network.node[31].content_store 	misses[31] 	10079
scalar tree_4_3_u06_r13_network.node[31].content_store 	decision_yes[31] 	10078
scalar tree_4_3_u06_r13_network.node[31].content_store 	decision_no[31] 	0
scalar tree_4_3_u06_r13_network.node[31].content_store 	decision_ratio[31] 	1
scalar tree_4_3_u06_r13_network.node[32].core_layer 	interests[32] 	12005
scalar tree_4_3_u06_r13_network.node[32].core_layer 	data[32] 	10113
scalar tree_4_3_u06_r13_network.node[32].content_store 	p_hit[32] 	0.15760099958351
scalar tree_4_3_u06_r13_network.node[32].content_store 	hits[32] 	1892
scalar tree_4_3_u06_r13_network.node[32].content_store 	misses[32] 	10113
scalar tree_4_3_u06_r13_network.node[32].content_store 	decision_yes[32] 	10113
scalar tree_4_3_u06_r13_network.node[32].content_store 	decision_no[32] 	0
scalar tree_4_3_u06_r13_network.node[32].content_store 	decision_ratio[32] 	1
scalar tree_4_3_u06_r13_network.node[33].core_layer 	interests[33] 	11971
scalar tree_4_3_u06_r13_network.node[33].core_layer 	data[33] 	10128
scalar tree_4_3_u06_r13_network.node[33].content_store 	p_hit[33] 	0.15395539219781
scalar tree_4_3_u06_r13_network.node[33].content_store 	hits[33] 	1843
scalar tree_4_3_u06_r13_network.node[33].content_store 	misses[33] 	10128
scalar tree_4_3_u06_r13_network.node[33].content_store 	decision_yes[33] 	10128
scalar tree_4_3_u06_r13_network.node[33].content_store 	decision_no[33] 	0
scalar tree_4_3_u06_r13_network.node[33].content_store 	decision_ratio[33] 	1
scalar tree_4_3_u06_r13_network.node[34].core_layer 	interests[34] 	12262
scalar tree_4_3_u06_r13_network.node[34].core_layer 	data[34] 	10375
scalar tree_4_3_u06_r13_network.node[34].content_store 	p_hit[34] 	0.15380851410863
scalar tree_4_3_u06_r13_network.node[34].content_store 	hits[34] 	1886
scalar tree_4_3_u06_r13_network.node[34].content_store 	misses[34] 	10376
scalar tree_4_3_u06_r13_network.node[34].content_store 	decision_yes[34] 	10375
scalar tree_4_3_u06_r13_network.node[34].content_store 	decision_no[34] 	0
scalar tree_4_3_u06_r13_network.node[34].content_store 	decision_ratio[34] 	1
scalar tree_4_3_u06_r13_network.node[35].core_layer 	interests[35] 	12014
scalar tree_4_3_u06_r13_network.node[35].core_layer 	data[35] 	10198
scalar tree_4_3_u06_r13_network.node[35].content_store 	p_hit[35] 	0.15107374729482
scalar tree_4_3_u06_r13_network.node[35].content_store 	hits[35] 	1815
scalar tree_4_3_u06_r13_network.node[35].content_store 	misses[35] 	10199
scalar tree_4_3_u06_r13_network.node[35].content_store 	decision_yes[35] 	10198
scalar tree_4_3_u06_r13_network.node[35].content_store 	decision_no[35] 	0
scalar tree_4_3_u06_r13_network.node[35].content_store 	decision_ratio[35] 	1
scalar tree_4_3_u06_r13_network.node[36].core_layer 	interests[36] 	12050
scalar tree_4_3_u06_r13_network.node[36].core_layer 	data[36] 	10124
scalar tree_4_3_u06_r13_network.node[36].content_store 	p_hit[36] 	0.15966804979253
scalar tree_4_3_u06_r13_network.node[36].content_store 	hits[36] 	1924
scalar tree_4_3_u06_r13_network.node[36].content_store 	misses[36] 	10126
scalar tree_4_3_u06_r13_network.node[36].content_store 	decision_yes[36] 	10124
scalar tree_4_3_u06_r13_network.node[36].content_store 	decision_no[36] 	0
scalar tree_4_3_u06_r13_network.node[36].content_store 	decision_ratio[36] 	1
scalar tree_4_3_u06_r13_network.node[37].core_layer 	interests[37] 	11783
scalar tree_4_3_u06_r13_network.node[37].core_layer 	data[37] 	9948
scalar tree_4_3_u06_r13_network.node[37].content_store 	p_hit[37] 	0.15564796741068
scalar tree_4_3_u06_r13_network.node[37].content_store 	hits[37] 	1834
scalar tree_4_3_u06_r13_network.node[37].content_store 	misses[37] 	9949
scalar tree_4_3_u06_r13_network.node[37].content_store 	decision_yes[37] 	9948
scalar tree_4_3_u06_r13_network.node[37].content_store 	decision_no[37] 	0
scalar tree_4_3_u06_r13_network.node[37].content_store 	decision_ratio[37] 	1
scalar tree_4_3_u06_r13_network.node[38].core_layer 	interests[38] 	11987
scalar tree_4_3_u06_r13_network.node[38].core_layer 	data[38] 	10021
scalar tree_4_3_u06_r13_network.node[38].content_store 	p_hit[38] 	0.16392758822057
scalar tree_4_3_u06_r13_network.node[38].content_store 	hits[38] 	1965
scalar tree_4_3_u06_r13_network.node[38].content_store 	misses[38] 	10022
scalar tree_4_3_u06_r13_network.node[38].content_store 	decision_yes[38] 	10021
scalar tree_4_3_u06_r13_network.node[38].content_store 	decision_no[38] 	0
scalar tree_4_3_u06_r13_network.node[38].content_store 	decision_ratio[38] 	1
scalar tree_4_3_u06_r13_network.node[39].core_layer 	interests[39] 	11966
scalar tree_4_3_u06_r13_network.node[39].core_layer 	data[39] 	10187
scalar tree_4_3_u06_r13_network.node[39].content_store 	p_hit[39] 	0.14858766505098
scalar tree_4_3_u06_r13_network.node[39].content_store 	hits[39] 	1778
scalar tree_4_3_u06_r13_network.node[39].content_store 	misses[39] 	10188
scalar tree_4_3_u06_r13_network.node[39].content_store 	decision_yes[39] 	10187
scalar tree_4_3_u06_r13_network.node[39].content_store 	decision_no[39] 	0
scalar tree_4_3_u06_r13_network.node[39].content_store 	decision_ratio[39] 	1
scalar tree_4_3_u06_r13_network.client[13] 	hdistance[13] 	3.3796000672156
scalar tree_4_3_u06_r13_network.client[13] 	downloads[13] 	11902
scalar tree_4_3_u06_r13_network.client[13] 	avg_time[13] 	0.005068938554
scalar tree_4_3_u06_r13_network.client[14] 	hdistance[14] 	3.36109260493
scalar tree_4_3_u06_r13_network.client[14] 	downloads[14] 	12008
scalar tree_4_3_u06_r13_network.client[14] 	avg_time[14] 	0.005041106661
scalar tree_4_3_u06_r13_network.client[15] 	hdistance[15] 	3.383969785984
scalar tree_4_3_u06_r13_network.client[15] 	downloads[15] 	11915
scalar tree_4_3_u06_r13_network.client[15] 	avg_time[15] 	0.005075663311
scalar tree_4_3_u06_r13_network.client[16] 	hdistance[16] 	3.4024563455594
scalar tree_4_3_u06_r13_network.client[16] 	downloads[16] 	11969
scalar tree_4_3_u06_r13_network.client[16] 	avg_time[16] 	0.005103121287
scalar tree_4_3_u06_r13_network.client[17] 	hdistance[17] 	3.3683331942242
scalar tree_4_3_u06_r13_network.client[17] 	downloads[17] 	11981
scalar tree_4_3_u06_r13_network.client[17] 	avg_time[17] 	0.005052196525
scalar tree_4_3_u06_r13_network.client[18] 	hdistance[18] 	3.3746774327812
scalar tree_4_3_u06_r13_network.client[18] 	downloads[18] 	12013
scalar tree_4_3_u06_r13_network.client[18] 	avg_time[18] 	0.005061745285
scalar tree_4_3_u06_r13_network.client[19] 	hdistance[19] 	3.3791611185086
scalar tree_4_3_u06_r13_network.client[19] 	downloads[19] 	12016
scalar tree_4_3_u06_r13_network.client[19] 	avg_time[19] 	0.005068340706
scalar tree_4_3_u06_r13_network.client[20] 	hdistance[20] 	3.385046113307
scalar tree_4_3_u06_r13_network.client[20] 	downloads[20] 	12144
scalar tree_4_3_u06_r13_network.client[20] 	avg_time[20] 	0.00507756614
scalar tree_4_3_u06_r13_network.client[21] 	hdistance[21] 	3.3475272422464
scalar tree_4_3_u06_r13_network.client[21] 	downloads[21] 	11930
scalar tree_4_3_u06_r13_network.client[21] 	avg_time[21] 	0.005020825968
scalar tree_4_3_u06_r13_network.client[22] 	hdistance[22] 	3.3759075907591
scalar tree_4_3_u06_r13_network.client[22] 	downloads[22] 	12120
scalar tree_4_3_u06_r13_network.client[22] 	avg_time[22] 	0.005063080388
scalar tree_4_3_u06_r13_network.client[23] 	hdistance[23] 	3.3887962654218
scalar tree_4_3_u06_r13_network.client[23] 	downloads[23] 	11996
scalar tree_4_3_u06_r13_network.client[23] 	avg_time[23] 	0.005082648229
scalar tree_4_3_u06_r13_network.client[24] 	hdistance[24] 	3.3911516266622
scalar tree_4_3_u06_r13_network.client[24] 	downloads[24] 	11957
scalar tree_4_3_u06_r13_network.client[24] 	avg_time[24] 	0.005086190201
scalar tree_4_3_u06_r13_network.client[25] 	hdistance[25] 	3.3497619246512
scalar tree_4_3_u06_r13_network.client[25] 	downloads[25] 	11971
scalar tree_4_3_u06_r13_network.client[25] 	avg_time[25] 	0.005024376803
scalar tree_4_3_u06_r13_network.client[26] 	hdistance[26] 	3.3694400400567
scalar tree_4_3_u06_r13_network.client[26] 	downloads[26] 	11983
scalar tree_4_3_u06_r13_network.client[26] 	avg_time[26] 	0.005053956693
scalar tree_4_3_u06_r13_network.client[27] 	hdistance[27] 	3.3706576728499
scalar tree_4_3_u06_r13_network.client[27] 	downloads[27] 	11860
scalar tree_4_3_u06_r13_network.client[27] 	avg_time[27] 	0.005055733076
scalar tree_4_3_u06_r13_network.client[28] 	hdistance[28] 	3.3748730104978
scalar tree_4_3_u06_r13_network.client[28] 	downloads[28] 	11812
scalar tree_4_3_u06_r13_network.client[28] 	avg_time[28] 	0.005062084876
scalar tree_4_3_u06_r13_network.client[29] 	hdistance[29] 	3.3870860927152
scalar tree_4_3_u06_r13_network.client[29] 	downloads[29] 	12080
scalar tree_4_3_u06_r13_network.client[29] 	avg_time[29] 	0.00508062515
scalar tree_4_3_u06_r13_network.client[30] 	hdistance[30] 	3.3732441471572
scalar tree_4_3_u06_r13_network.client[30] 	downloads[30] 	11960
scalar tree_4_3_u06_r13_network.client[30] 	avg_time[30] 	0.005059863205
scalar tree_4_3_u06_r13_network.client[31] 	hdistance[31] 	3.3674713891905
scalar tree_4_3_u06_r13_network.client[31] 	downloads[31] 	11971
scalar tree_4_3_u06_r13_network.client[31] 	avg_time[31] 	0.005050862191
scalar tree_4_3_u06_r13_network.client[32] 	hdistance[32] 	3.369596001666
scalar tree_4_3_u06_r13_network.client[32] 	downloads[32] 	12005
scalar tree_4_3_u06_r13_network.client[32] 	avg_time[32] 	0.005053853985
scalar tree_4_3_u06_r13_network.client[33] 	hdistance[33] 	3.3841784312088
scalar tree_4_3_u06_r13_network.client[33] 	downloads[33] 	11971
scalar tree_4_3_u06_r13_network.client[33] 	avg_time[33] 	0.005075987322
scalar tree_4_3_u06_r13_network.client[34] 	hdistance[34] 	3.3847157654351
scalar tree_4_3_u06_r13_network.client[34] 	downloads[34] 	12261
scalar tree_4_3_u06_r13_network.client[34] 	avg_time[34] 	0.005076876696
scalar tree_4_3_u06_r13_network.client[35] 	hdistance[35] 	3.3956547074003
scalar tree_4_3_u06_r13_network.client[35] 	downloads[35] 	12013
scalar tree_4_3_u06_r13_network.client[35] 	avg_time[35] 	0.005092974962
scalar tree_4_3_u06_r13_network.client[36] 	hdistance[36] 	3.3612217795485
scalar tree_4_3_u06_r13_network.client[36] 	downloads[36] 	12048
scalar tree_4_3_u06_r13_network.client[36] 	avg_time[36] 	0.005041410559
scalar tree_4_3_u06_r13_network.client[37] 	hdistance[37] 	3.377355287727
scalar tree_4_3_u06_r13_network.client[37] 	downloads[37] 	11782
scalar tree_4_3_u06_r13_network.client[37] 	avg_time[37] 	0.005065697963
scalar tree_4_3_u06_r13_network.client[38] 	hdistance[38] 	3.3442349407642
scalar tree_4_3_u06_r13_network.client[38] 	downloads[38] 	11986
scalar tree_4_3_u06_r13_network.client[38] 	avg_time[38] 	0.005016153546
scalar tree_4_3_u06_r13_network.client[39] 	hdistance[39] 	3.4055996656916
scalar tree_4_3_u06_r13_network.client[39] 	downloads[39] 	11965
scalar tree_4_3_u06_r13_network.client[39] 	avg_time[39] 	0.005108050805
