version 2
run General-28-20160819-07:10:54-13837
attr a 0.9
attr cd fix0.1
attr configname General
attr cr lru
attr datetime 20160819-07:10:54
attr experiment General
attr fsize 1
attr inifile hw5115/scenario_A/NRR-FIX0.1.ini
attr iterationvars "$name=tree_4_3, $un=01, $rep=9, $cd=fix0.1, $cr=lru, $fsize=1, $a=0.9, $sl=nrr, $ttl=1000, $variance=0.05"
attr iterationvars2 "$name=tree_4_3, $un=01, $rep=9, $cd=fix0.1, $cr=lru, $fsize=1, $a=0.9, $sl=nrr, $ttl=1000, $variance=0.05, $repetition=0"
attr measurement "$name=tree_4_3, $un=01, $rep=9, $cd=fix0.1, $cr=lru, $fsize=1, $a=0.9, $sl=nrr, $ttl=1000, $variance=0.05"
attr name tree_4_3
attr network networks.${name}_u${un}_r${rep}_network
attr processid 13837
attr rep 9
attr repetition 0
attr replication #0
attr resultdir results
attr runnumber 28
attr seedset 9
attr sl nrr
attr ttl 1000
attr un 01
attr variance 0.05

scalar . 	a 	0.9
scalar . 	fsize 	1
scalar . 	rep 	9
scalar . 	ttl 	1000
scalar . 	un 	01
scalar . 	variance 	0.05
scalar tree_4_3_u01_r9_network.content_distribution 	repo-0 	0
scalar tree_4_3_u01_r9_network.content_distribution 	client-0 	13
scalar tree_4_3_u01_r9_network.content_distribution 	client-1 	14
scalar tree_4_3_u01_r9_network.content_distribution 	client-2 	15
scalar tree_4_3_u01_r9_network.content_distribution 	client-3 	16
scalar tree_4_3_u01_r9_network.content_distribution 	client-4 	17
scalar tree_4_3_u01_r9_network.content_distribution 	client-5 	18
scalar tree_4_3_u01_r9_network.content_distribution 	client-6 	19
scalar tree_4_3_u01_r9_network.content_distribution 	client-7 	20
scalar tree_4_3_u01_r9_network.content_distribution 	client-8 	21
scalar tree_4_3_u01_r9_network.content_distribution 	client-9 	22
scalar tree_4_3_u01_r9_network.content_distribution 	client-10 	23
scalar tree_4_3_u01_r9_network.content_distribution 	client-11 	24
scalar tree_4_3_u01_r9_network.content_distribution 	client-12 	25
scalar tree_4_3_u01_r9_network.content_distribution 	client-13 	26
scalar tree_4_3_u01_r9_network.content_distribution 	client-14 	27
scalar tree_4_3_u01_r9_network.content_distribution 	client-15 	28
scalar tree_4_3_u01_r9_network.content_distribution 	client-16 	29
scalar tree_4_3_u01_r9_network.content_distribution 	client-17 	30
scalar tree_4_3_u01_r9_network.content_distribution 	client-18 	31
scalar tree_4_3_u01_r9_network.content_distribution 	client-19 	32
scalar tree_4_3_u01_r9_network.content_distribution 	client-20 	33
scalar tree_4_3_u01_r9_network.content_distribution 	client-21 	34
scalar tree_4_3_u01_r9_network.content_distribution 	client-22 	35
scalar tree_4_3_u01_r9_network.content_distribution 	client-23 	36
scalar tree_4_3_u01_r9_network.content_distribution 	client-24 	37
scalar tree_4_3_u01_r9_network.content_distribution 	client-25 	38
scalar tree_4_3_u01_r9_network.content_distribution 	client-26 	39
scalar tree_4_3_u01_r9_network.content_distribution 	repo-0_card 	100000
scalar tree_4_3_u01_r9_network.content_distribution 	repo-0_price 	0
scalar tree_4_3_u01_r9_network.statistics 	stabilization_time 	760.6
scalar tree_4_3_u01_r9_network.statistics 	p_hit 	0.2038660765092
scalar tree_4_3_u01_r9_network.statistics 	interests 	26427.575
scalar tree_4_3_u01_r9_network.statistics 	data 	18333.55
scalar tree_4_3_u01_r9_network.statistics 	hdistance 	2.892731695205
scalar tree_4_3_u01_r9_network.statistics 	avg_time 	0.004530136352
scalar tree_4_3_u01_r9_network.statistics 	downloads 	323755
scalar tree_4_3_u01_r9_network.statistics 	total_cost 	0
scalar tree_4_3_u01_r9_network.statistics 	total_replicas 	100000
scalar tree_4_3_u01_r9_network.statistics 	inner_hit 	0.37240814813671
scalar tree_4_3_u01_r9_network.node[0].core_layer 	interests[0] 	204770
scalar tree_4_3_u01_r9_network.node[0].core_layer 	repo_load[0] 	203186
scalar tree_4_3_u01_r9_network.node[0].core_layer 	data[0] 	0
scalar tree_4_3_u01_r9_network.node[0].core_layer 	repo_int[0] 	203186
scalar tree_4_3_u01_r9_network.node[0].content_store 	p_hit[0] 	0.0077355081310739
scalar tree_4_3_u01_r9_network.node[0].content_store 	hits[0] 	1584
scalar tree_4_3_u01_r9_network.node[0].content_store 	misses[0] 	203186
scalar tree_4_3_u01_r9_network.node[0].content_store 	decision_yes[0] 	20214
scalar tree_4_3_u01_r9_network.node[0].content_store 	decision_no[0] 	182972
scalar tree_4_3_u01_r9_network.node[0].content_store 	decision_ratio[0] 	0.09948520075202
scalar tree_4_3_u01_r9_network.node[1].core_layer 	interests[1] 	74904
scalar tree_4_3_u01_r9_network.node[1].core_layer 	data[1] 	73934
scalar tree_4_3_u01_r9_network.node[1].content_store 	p_hit[1] 	0.012923208373385
scalar tree_4_3_u01_r9_network.node[1].content_store 	hits[1] 	968
scalar tree_4_3_u01_r9_network.node[1].content_store 	misses[1] 	73936
scalar tree_4_3_u01_r9_network.node[1].content_store 	decision_yes[1] 	7214
scalar tree_4_3_u01_r9_network.node[1].content_store 	decision_no[1] 	66720
scalar tree_4_3_u01_r9_network.node[1].content_store 	decision_ratio[1] 	0.097573511510266
scalar tree_4_3_u01_r9_network.node[2].core_layer 	interests[2] 	75282
scalar tree_4_3_u01_r9_network.node[2].core_layer 	data[2] 	74297
scalar tree_4_3_u01_r9_network.node[2].content_store 	p_hit[2] 	0.0130708535905
scalar tree_4_3_u01_r9_network.node[2].content_store 	hits[2] 	984
scalar tree_4_3_u01_r9_network.node[2].content_store 	misses[2] 	74298
scalar tree_4_3_u01_r9_network.node[2].content_store 	decision_yes[2] 	7492
scalar tree_4_3_u01_r9_network.node[2].content_store 	decision_no[2] 	66804
scalar tree_4_3_u01_r9_network.node[2].content_store 	decision_ratio[2] 	0.10083988370841
scalar tree_4_3_u01_r9_network.node[3].core_layer 	interests[3] 	75159
scalar tree_4_3_u01_r9_network.node[3].core_layer 	data[3] 	74197
scalar tree_4_3_u01_r9_network.node[3].content_store 	p_hit[3] 	0.012772921406618
scalar tree_4_3_u01_r9_network.node[3].content_store 	hits[3] 	960
scalar tree_4_3_u01_r9_network.node[3].content_store 	misses[3] 	74199
scalar tree_4_3_u01_r9_network.node[3].content_store 	decision_yes[3] 	7489
scalar tree_4_3_u01_r9_network.node[3].content_store 	decision_no[3] 	66708
scalar tree_4_3_u01_r9_network.node[3].content_store 	decision_ratio[3] 	0.10093400002696
scalar tree_4_3_u01_r9_network.node[4].core_layer 	interests[4] 	29188
scalar tree_4_3_u01_r9_network.node[4].core_layer 	data[4] 	27547
scalar tree_4_3_u01_r9_network.node[4].content_store 	p_hit[4] 	0.056153213649445
scalar tree_4_3_u01_r9_network.node[4].content_store 	hits[4] 	1639
scalar tree_4_3_u01_r9_network.node[4].content_store 	misses[4] 	27549
scalar tree_4_3_u01_r9_network.node[4].content_store 	decision_yes[4] 	2679
scalar tree_4_3_u01_r9_network.node[4].content_store 	decision_no[4] 	24868
scalar tree_4_3_u01_r9_network.node[4].content_store 	decision_ratio[4] 	0.097251969361455
scalar tree_4_3_u01_r9_network.node[5].core_layer 	interests[5] 	30181
scalar tree_4_3_u01_r9_network.node[5].core_layer 	data[5] 	28523
scalar tree_4_3_u01_r9_network.node[5].content_store 	p_hit[5] 	0.054868957291011
scalar tree_4_3_u01_r9_network.node[5].content_store 	hits[5] 	1656
scalar tree_4_3_u01_r9_network.node[5].content_store 	misses[5] 	28525
scalar tree_4_3_u01_r9_network.node[5].content_store 	decision_yes[5] 	2836
scalar tree_4_3_u01_r9_network.node[5].content_store 	decision_no[5] 	25687
scalar tree_4_3_u01_r9_network.node[5].content_store 	decision_ratio[5] 	0.099428531360656
scalar tree_4_3_u01_r9_network.node[6].core_layer 	interests[6] 	31236
scalar tree_4_3_u01_r9_network.node[6].core_layer 	data[6] 	29070
scalar tree_4_3_u01_r9_network.node[6].content_store 	p_hit[6] 	0.069311051351005
scalar tree_4_3_u01_r9_network.node[6].content_store 	hits[6] 	2165
scalar tree_4_3_u01_r9_network.node[6].content_store 	misses[6] 	29071
scalar tree_4_3_u01_r9_network.node[6].content_store 	decision_yes[6] 	2821
scalar tree_4_3_u01_r9_network.node[6].content_store 	decision_no[6] 	26249
scalar tree_4_3_u01_r9_network.node[6].content_store 	decision_ratio[6] 	0.097041623667011
scalar tree_4_3_u01_r9_network.node[7].core_layer 	interests[7] 	29260
scalar tree_4_3_u01_r9_network.node[7].core_layer 	data[7] 	27667
scalar tree_4_3_u01_r9_network.node[7].content_store 	p_hit[7] 	0.054442925495557
scalar tree_4_3_u01_r9_network.node[7].content_store 	hits[7] 	1593
scalar tree_4_3_u01_r9_network.node[7].content_store 	misses[7] 	27667
scalar tree_4_3_u01_r9_network.node[7].content_store 	decision_yes[7] 	2768
scalar tree_4_3_u01_r9_network.node[7].content_store 	decision_no[7] 	24899
scalar tree_4_3_u01_r9_network.node[7].content_store 	decision_ratio[7] 	0.10004698738569
scalar tree_4_3_u01_r9_network.node[8].core_layer 	interests[8] 	30709
scalar tree_4_3_u01_r9_network.node[8].core_layer 	data[8] 	28725
scalar tree_4_3_u01_r9_network.node[8].content_store 	p_hit[8] 	0.064606467159465
scalar tree_4_3_u01_r9_network.node[8].content_store 	hits[8] 	1984
scalar tree_4_3_u01_r9_network.node[8].content_store 	misses[8] 	28725
scalar tree_4_3_u01_r9_network.node[8].content_store 	decision_yes[8] 	2811
scalar tree_4_3_u01_r9_network.node[8].content_store 	decision_no[8] 	25914
scalar tree_4_3_u01_r9_network.node[8].content_store 	decision_ratio[8] 	0.097859007832898
scalar tree_4_3_u01_r9_network.node[9].core_layer 	interests[9] 	31225
scalar tree_4_3_u01_r9_network.node[9].core_layer 	data[9] 	28920
scalar tree_4_3_u01_r9_network.node[9].content_store 	p_hit[9] 	0.073819055244195
scalar tree_4_3_u01_r9_network.node[9].content_store 	hits[9] 	2305
scalar tree_4_3_u01_r9_network.node[9].content_store 	misses[9] 	28920
scalar tree_4_3_u01_r9_network.node[9].content_store 	decision_yes[9] 	2885
scalar tree_4_3_u01_r9_network.node[9].content_store 	decision_no[9] 	26035
scalar tree_4_3_u01_r9_network.node[9].content_store 	decision_ratio[9] 	0.099757952973721
scalar tree_4_3_u01_r9_network.node[10].core_layer 	interests[10] 	39132
scalar tree_4_3_u01_r9_network.node[10].core_layer 	data[10] 	37277
scalar tree_4_3_u01_r9_network.node[10].content_store 	p_hit[10] 	0.047403659409179
scalar tree_4_3_u01_r9_network.node[10].content_store 	hits[10] 	1855
scalar tree_4_3_u01_r9_network.node[10].content_store 	misses[10] 	37277
scalar tree_4_3_u01_r9_network.node[10].content_store 	decision_yes[10] 	3803
scalar tree_4_3_u01_r9_network.node[10].content_store 	decision_no[10] 	33474
scalar tree_4_3_u01_r9_network.node[10].content_store 	decision_ratio[10] 	0.10202001234005
scalar tree_4_3_u01_r9_network.node[11].core_layer 	interests[11] 	30403
scalar tree_4_3_u01_r9_network.node[11].core_layer 	data[11] 	28656
scalar tree_4_3_u01_r9_network.node[11].content_store 	p_hit[11] 	0.057461434726836
scalar tree_4_3_u01_r9_network.node[11].content_store 	hits[11] 	1747
scalar tree_4_3_u01_r9_network.node[11].content_store 	misses[11] 	28656
scalar tree_4_3_u01_r9_network.node[11].content_store 	decision_yes[11] 	2852
scalar tree_4_3_u01_r9_network.node[11].content_store 	decision_no[11] 	25804
scalar tree_4_3_u01_r9_network.node[11].content_store 	decision_ratio[11] 	0.099525404801787
scalar tree_4_3_u01_r9_network.node[12].core_layer 	interests[12] 	21556
scalar tree_4_3_u01_r9_network.node[12].core_layer 	data[12] 	19298
scalar tree_4_3_u01_r9_network.node[12].content_store 	p_hit[12] 	0.10475041751716
scalar tree_4_3_u01_r9_network.node[12].content_store 	hits[12] 	2258
scalar tree_4_3_u01_r9_network.node[12].content_store 	misses[12] 	19298
scalar tree_4_3_u01_r9_network.node[12].content_store 	decision_yes[12] 	1897
scalar tree_4_3_u01_r9_network.node[12].content_store 	decision_no[12] 	17401
scalar tree_4_3_u01_r9_network.node[12].content_store 	decision_ratio[12] 	0.098300342004353
scalar tree_4_3_u01_r9_network.node[13].core_layer 	interests[13] 	12766
scalar tree_4_3_u01_r9_network.node[13].core_layer 	data[13] 	9298
scalar tree_4_3_u01_r9_network.node[13].content_store 	p_hit[13] 	0.27150242832524
scalar tree_4_3_u01_r9_network.node[13].content_store 	hits[13] 	3466
scalar tree_4_3_u01_r9_network.node[13].content_store 	misses[13] 	9300
scalar tree_4_3_u01_r9_network.node[13].content_store 	decision_yes[13] 	962
scalar tree_4_3_u01_r9_network.node[13].content_store 	decision_no[13] 	8336
scalar tree_4_3_u01_r9_network.node[13].content_store 	decision_ratio[13] 	0.10346311034631
scalar tree_4_3_u01_r9_network.node[14].core_layer 	interests[14] 	12964
scalar tree_4_3_u01_r9_network.node[14].core_layer 	data[14] 	9583
scalar tree_4_3_u01_r9_network.node[14].content_store 	p_hit[14] 	0.26072199938291
scalar tree_4_3_u01_r9_network.node[14].content_store 	hits[14] 	3380
scalar tree_4_3_u01_r9_network.node[14].content_store 	misses[14] 	9584
scalar tree_4_3_u01_r9_network.node[14].content_store 	decision_yes[14] 	916
scalar tree_4_3_u01_r9_network.node[14].content_store 	decision_no[14] 	8667
scalar tree_4_3_u01_r9_network.node[14].content_store 	decision_ratio[14] 	0.095585933423771
scalar tree_4_3_u01_r9_network.node[15].core_layer 	interests[15] 	13990
scalar tree_4_3_u01_r9_network.node[15].core_layer 	data[15] 	9267
scalar tree_4_3_u01_r9_network.node[15].content_store 	p_hit[15] 	0.33745532523231
scalar tree_4_3_u01_r9_network.node[15].content_store 	hits[15] 	4721
scalar tree_4_3_u01_r9_network.node[15].content_store 	misses[15] 	9269
scalar tree_4_3_u01_r9_network.node[15].content_store 	decision_yes[15] 	939
scalar tree_4_3_u01_r9_network.node[15].content_store 	decision_no[15] 	8328
scalar tree_4_3_u01_r9_network.node[15].content_store 	decision_ratio[15] 	0.10132729038524
scalar tree_4_3_u01_r9_network.node[16].core_layer 	interests[16] 	13101
scalar tree_4_3_u01_r9_network.node[16].core_layer 	data[16] 	9476
scalar tree_4_3_u01_r9_network.node[16].content_store 	p_hit[16] 	0.27669643538661
scalar tree_4_3_u01_r9_network.node[16].content_store 	hits[16] 	3625
scalar tree_4_3_u01_r9_network.node[16].content_store 	misses[16] 	9476
scalar tree_4_3_u01_r9_network.node[16].content_store 	decision_yes[16] 	931
scalar tree_4_3_u01_r9_network.node[16].content_store 	decision_no[16] 	8545
scalar tree_4_3_u01_r9_network.node[16].content_store 	decision_ratio[16] 	0.09824820599409
scalar tree_4_3_u01_r9_network.node[17].core_layer 	interests[17] 	13030
scalar tree_4_3_u01_r9_network.node[17].core_layer 	data[17] 	9347
scalar tree_4_3_u01_r9_network.node[17].content_store 	p_hit[17] 	0.28265541059094
scalar tree_4_3_u01_r9_network.node[17].content_store 	hits[17] 	3683
scalar tree_4_3_u01_r9_network.node[17].content_store 	misses[17] 	9347
scalar tree_4_3_u01_r9_network.node[17].content_store 	decision_yes[17] 	962
scalar tree_4_3_u01_r9_network.node[17].content_store 	decision_no[17] 	8385
scalar tree_4_3_u01_r9_network.node[17].content_store 	decision_ratio[17] 	0.1029207232267
scalar tree_4_3_u01_r9_network.node[18].core_layer 	interests[18] 	13143
scalar tree_4_3_u01_r9_network.node[18].core_layer 	data[18] 	9536
scalar tree_4_3_u01_r9_network.node[18].content_store 	p_hit[18] 	0.27444266910142
scalar tree_4_3_u01_r9_network.node[18].content_store 	hits[18] 	3607
scalar tree_4_3_u01_r9_network.node[18].content_store 	misses[18] 	9536
scalar tree_4_3_u01_r9_network.node[18].content_store 	decision_yes[18] 	948
scalar tree_4_3_u01_r9_network.node[18].content_store 	decision_no[18] 	8588
scalar tree_4_3_u01_r9_network.node[18].content_store 	decision_ratio[18] 	0.099412751677852
scalar tree_4_3_u01_r9_network.node[19].core_layer 	interests[19] 	12984
scalar tree_4_3_u01_r9_network.node[19].core_layer 	data[19] 	9405
scalar tree_4_3_u01_r9_network.node[19].content_store 	p_hit[19] 	0.27564695009242
scalar tree_4_3_u01_r9_network.node[19].content_store 	hits[19] 	3579
scalar tree_4_3_u01_r9_network.node[19].content_store 	misses[19] 	9405
scalar tree_4_3_u01_r9_network.node[19].content_store 	decision_yes[19] 	926
scalar tree_4_3_u01_r9_network.node[19].content_store 	decision_no[19] 	8479
scalar tree_4_3_u01_r9_network.node[19].content_store 	decision_ratio[19] 	0.09845826687932
scalar tree_4_3_u01_r9_network.node[20].core_layer 	interests[20] 	12992
scalar tree_4_3_u01_r9_network.node[20].core_layer 	data[20] 	9394
scalar tree_4_3_u01_r9_network.node[20].content_store 	p_hit[20] 	0.27693965517241
scalar tree_4_3_u01_r9_network.node[20].content_store 	hits[20] 	3598
scalar tree_4_3_u01_r9_network.node[20].content_store 	misses[20] 	9394
scalar tree_4_3_u01_r9_network.node[20].content_store 	decision_yes[20] 	912
scalar tree_4_3_u01_r9_network.node[20].content_store 	decision_no[20] 	8482
scalar tree_4_3_u01_r9_network.node[20].content_store 	decision_ratio[20] 	0.097083244624228
scalar tree_4_3_u01_r9_network.node[21].core_layer 	interests[21] 	13022
scalar tree_4_3_u01_r9_network.node[21].core_layer 	data[21] 	9585
scalar tree_4_3_u01_r9_network.node[21].content_store 	p_hit[21] 	0.26393795115958
scalar tree_4_3_u01_r9_network.node[21].content_store 	hits[21] 	3437
scalar tree_4_3_u01_r9_network.node[21].content_store 	misses[21] 	9585
scalar tree_4_3_u01_r9_network.node[21].content_store 	decision_yes[21] 	979
scalar tree_4_3_u01_r9_network.node[21].content_store 	decision_no[21] 	8606
scalar tree_4_3_u01_r9_network.node[21].content_store 	decision_ratio[21] 	0.10213875847679
scalar tree_4_3_u01_r9_network.node[22].core_layer 	interests[22] 	12743
scalar tree_4_3_u01_r9_network.node[22].core_layer 	data[22] 	9397
scalar tree_4_3_u01_r9_network.node[22].content_store 	p_hit[22] 	0.26257553166444
scalar tree_4_3_u01_r9_network.node[22].content_store 	hits[22] 	3346
scalar tree_4_3_u01_r9_network.node[22].content_store 	misses[22] 	9397
scalar tree_4_3_u01_r9_network.node[22].content_store 	decision_yes[22] 	899
scalar tree_4_3_u01_r9_network.node[22].content_store 	decision_no[22] 	8498
scalar tree_4_3_u01_r9_network.node[22].content_store 	decision_ratio[22] 	0.095668830477812
scalar tree_4_3_u01_r9_network.node[23].core_layer 	interests[23] 	12867
scalar tree_4_3_u01_r9_network.node[23].core_layer 	data[23] 	9379
scalar tree_4_3_u01_r9_network.node[23].content_store 	p_hit[23] 	0.27108106007616
scalar tree_4_3_u01_r9_network.node[23].content_store 	hits[23] 	3488
scalar tree_4_3_u01_r9_network.node[23].content_store 	misses[23] 	9379
scalar tree_4_3_u01_r9_network.node[23].content_store 	decision_yes[23] 	981
scalar tree_4_3_u01_r9_network.node[23].content_store 	decision_no[23] 	8398
scalar tree_4_3_u01_r9_network.node[23].content_store 	decision_ratio[23] 	0.10459537264101
scalar tree_4_3_u01_r9_network.node[24].core_layer 	interests[24] 	14125
scalar tree_4_3_u01_r9_network.node[24].core_layer 	data[24] 	9504
scalar tree_4_3_u01_r9_network.node[24].content_store 	p_hit[24] 	0.32715044247788
scalar tree_4_3_u01_r9_network.node[24].content_store 	hits[24] 	4621
scalar tree_4_3_u01_r9_network.node[24].content_store 	misses[24] 	9504
scalar tree_4_3_u01_r9_network.node[24].content_store 	decision_yes[24] 	1019
scalar tree_4_3_u01_r9_network.node[24].content_store 	decision_no[24] 	8485
scalar tree_4_3_u01_r9_network.node[24].content_store 	decision_ratio[24] 	0.10721801346801
scalar tree_4_3_u01_r9_network.node[25].core_layer 	interests[25] 	13314
scalar tree_4_3_u01_r9_network.node[25].core_layer 	data[25] 	9647
scalar tree_4_3_u01_r9_network.node[25].content_store 	p_hit[25] 	0.2752741475139
scalar tree_4_3_u01_r9_network.node[25].content_store 	hits[25] 	3665
scalar tree_4_3_u01_r9_network.node[25].content_store 	misses[25] 	9649
scalar tree_4_3_u01_r9_network.node[25].content_store 	decision_yes[25] 	936
scalar tree_4_3_u01_r9_network.node[25].content_store 	decision_no[25] 	8711
scalar tree_4_3_u01_r9_network.node[25].content_store 	decision_ratio[25] 	0.097024981859645
scalar tree_4_3_u01_r9_network.node[26].core_layer 	interests[26] 	12989
scalar tree_4_3_u01_r9_network.node[26].core_layer 	data[26] 	9561
scalar tree_4_3_u01_r9_network.node[26].content_store 	p_hit[26] 	0.26391562091
scalar tree_4_3_u01_r9_network.node[26].content_store 	hits[26] 	3428
scalar tree_4_3_u01_r9_network.node[26].content_store 	misses[26] 	9561
scalar tree_4_3_u01_r9_network.node[26].content_store 	decision_yes[26] 	963
scalar tree_4_3_u01_r9_network.node[26].content_store 	decision_no[26] 	8598
scalar tree_4_3_u01_r9_network.node[26].content_store 	decision_ratio[26] 	0.10072168183244
scalar tree_4_3_u01_r9_network.node[27].core_layer 	interests[27] 	13011
scalar tree_4_3_u01_r9_network.node[27].core_layer 	data[27] 	9445
scalar tree_4_3_u01_r9_network.node[27].content_store 	p_hit[27] 	0.27407578203059
scalar tree_4_3_u01_r9_network.node[27].content_store 	hits[27] 	3566
scalar tree_4_3_u01_r9_network.node[27].content_store 	misses[27] 	9445
scalar tree_4_3_u01_r9_network.node[27].content_store 	decision_yes[27] 	944
scalar tree_4_3_u01_r9_network.node[27].content_store 	decision_no[27] 	8501
scalar tree_4_3_u01_r9_network.node[27].content_store 	decision_ratio[27] 	0.099947061937533
scalar tree_4_3_u01_r9_network.node[28].core_layer 	interests[28] 	12955
scalar tree_4_3_u01_r9_network.node[28].core_layer 	data[28] 	9349
scalar tree_4_3_u01_r9_network.node[28].content_store 	p_hit[28] 	0.27834812813585
scalar tree_4_3_u01_r9_network.node[28].content_store 	hits[28] 	3606
scalar tree_4_3_u01_r9_network.node[28].content_store 	misses[28] 	9349
scalar tree_4_3_u01_r9_network.node[28].content_store 	decision_yes[28] 	924
scalar tree_4_3_u01_r9_network.node[28].content_store 	decision_no[28] 	8425
scalar tree_4_3_u01_r9_network.node[28].content_store 	decision_ratio[28] 	0.098834099903733
scalar tree_4_3_u01_r9_network.node[29].core_layer 	interests[29] 	13138
scalar tree_4_3_u01_r9_network.node[29].core_layer 	data[29] 	9440
scalar tree_4_3_u01_r9_network.node[29].content_store 	p_hit[29] 	0.28147358806515
scalar tree_4_3_u01_r9_network.node[29].content_store 	hits[29] 	3698
scalar tree_4_3_u01_r9_network.node[29].content_store 	misses[29] 	9440
scalar tree_4_3_u01_r9_network.node[29].content_store 	decision_yes[29] 	970
scalar tree_4_3_u01_r9_network.node[29].content_store 	decision_no[29] 	8470
scalar tree_4_3_u01_r9_network.node[29].content_store 	decision_ratio[29] 	0.10275423728814
scalar tree_4_3_u01_r9_network.node[30].core_layer 	interests[30] 	12929
scalar tree_4_3_u01_r9_network.node[30].core_layer 	data[30] 	9509
scalar tree_4_3_u01_r9_network.node[30].content_store 	p_hit[30] 	0.26444427256555
scalar tree_4_3_u01_r9_network.node[30].content_store 	hits[30] 	3419
scalar tree_4_3_u01_r9_network.node[30].content_store 	misses[30] 	9510
scalar tree_4_3_u01_r9_network.node[30].content_store 	decision_yes[30] 	983
scalar tree_4_3_u01_r9_network.node[30].content_store 	decision_no[30] 	8526
scalar tree_4_3_u01_r9_network.node[30].content_store 	decision_ratio[30] 	0.10337574929015
scalar tree_4_3_u01_r9_network.node[31].core_layer 	interests[31] 	13202
scalar tree_4_3_u01_r9_network.node[31].core_layer 	data[31] 	9610
scalar tree_4_3_u01_r9_network.node[31].content_store 	p_hit[31] 	0.27207998788062
scalar tree_4_3_u01_r9_network.node[31].content_store 	hits[31] 	3592
scalar tree_4_3_u01_r9_network.node[31].content_store 	misses[31] 	9610
scalar tree_4_3_u01_r9_network.node[31].content_store 	decision_yes[31] 	980
scalar tree_4_3_u01_r9_network.node[31].content_store 	decision_no[31] 	8630
scalar tree_4_3_u01_r9_network.node[31].content_store 	decision_ratio[31] 	0.10197710718002
scalar tree_4_3_u01_r9_network.node[32].core_layer 	interests[32] 	12955
scalar tree_4_3_u01_r9_network.node[32].core_layer 	data[32] 	9353
scalar tree_4_3_u01_r9_network.node[32].content_store 	p_hit[32] 	0.27803936703975
scalar tree_4_3_u01_r9_network.node[32].content_store 	hits[32] 	3602
scalar tree_4_3_u01_r9_network.node[32].content_store 	misses[32] 	9353
scalar tree_4_3_u01_r9_network.node[32].content_store 	decision_yes[32] 	948
scalar tree_4_3_u01_r9_network.node[32].content_store 	decision_no[32] 	8405
scalar tree_4_3_u01_r9_network.node[32].content_store 	decision_ratio[32] 	0.10135785309526
scalar tree_4_3_u01_r9_network.node[33].core_layer 	interests[33] 	13229
scalar tree_4_3_u01_r9_network.node[33].core_layer 	data[33] 	9476
scalar tree_4_3_u01_r9_network.node[33].content_store 	p_hit[33] 	0.28377050419533
scalar tree_4_3_u01_r9_network.node[33].content_store 	hits[33] 	3754
scalar tree_4_3_u01_r9_network.node[33].content_store 	misses[33] 	9475
scalar tree_4_3_u01_r9_network.node[33].content_store 	decision_yes[33] 	948
scalar tree_4_3_u01_r9_network.node[33].content_store 	decision_no[33] 	8528
scalar tree_4_3_u01_r9_network.node[33].content_store 	decision_ratio[33] 	0.10004221190376
scalar tree_4_3_u01_r9_network.node[34].core_layer 	interests[34] 	13171
scalar tree_4_3_u01_r9_network.node[34].core_layer 	data[34] 	9580
scalar tree_4_3_u01_r9_network.node[34].content_store 	p_hit[34] 	0.27264444613165
scalar tree_4_3_u01_r9_network.node[34].content_store 	hits[34] 	3591
scalar tree_4_3_u01_r9_network.node[34].content_store 	misses[34] 	9580
scalar tree_4_3_u01_r9_network.node[34].content_store 	decision_yes[34] 	949
scalar tree_4_3_u01_r9_network.node[34].content_store 	decision_no[34] 	8631
scalar tree_4_3_u01_r9_network.node[34].content_store 	decision_ratio[34] 	0.099060542797495
scalar tree_4_3_u01_r9_network.node[35].core_layer 	interests[35] 	12914
scalar tree_4_3_u01_r9_network.node[35].core_layer 	data[35] 	9395
scalar tree_4_3_u01_r9_network.node[35].content_store 	p_hit[35] 	0.2724949667028
scalar tree_4_3_u01_r9_network.node[35].content_store 	hits[35] 	3519
scalar tree_4_3_u01_r9_network.node[35].content_store 	misses[35] 	9395
scalar tree_4_3_u01_r9_network.node[35].content_store 	decision_yes[35] 	916
scalar tree_4_3_u01_r9_network.node[35].content_store 	decision_no[35] 	8479
scalar tree_4_3_u01_r9_network.node[35].content_store 	decision_ratio[35] 	0.097498669505056
scalar tree_4_3_u01_r9_network.node[36].core_layer 	interests[36] 	12976
scalar tree_4_3_u01_r9_network.node[36].core_layer 	data[36] 	9415
scalar tree_4_3_u01_r9_network.node[36].content_store 	p_hit[36] 	0.27450678175092
scalar tree_4_3_u01_r9_network.node[36].content_store 	hits[36] 	3562
scalar tree_4_3_u01_r9_network.node[36].content_store 	misses[36] 	9414
scalar tree_4_3_u01_r9_network.node[36].content_store 	decision_yes[36] 	895
scalar tree_4_3_u01_r9_network.node[36].content_store 	decision_no[36] 	8520
scalar tree_4_3_u01_r9_network.node[36].content_store 	decision_ratio[36] 	0.09506107275624
scalar tree_4_3_u01_r9_network.node[37].core_layer 	interests[37] 	13829
scalar tree_4_3_u01_r9_network.node[37].core_layer 	data[37] 	9228
scalar tree_4_3_u01_r9_network.node[37].content_store 	p_hit[37] 	0.33270663099284
scalar tree_4_3_u01_r9_network.node[37].content_store 	hits[37] 	4601
scalar tree_4_3_u01_r9_network.node[37].content_store 	misses[37] 	9228
scalar tree_4_3_u01_r9_network.node[37].content_store 	decision_yes[37] 	901
scalar tree_4_3_u01_r9_network.node[37].content_store 	decision_no[37] 	8327
scalar tree_4_3_u01_r9_network.node[37].content_store 	decision_ratio[37] 	0.09763762462072
scalar tree_4_3_u01_r9_network.node[38].core_layer 	interests[38] 	12873
scalar tree_4_3_u01_r9_network.node[38].core_layer 	data[38] 	9607
scalar tree_4_3_u01_r9_network.node[38].content_store 	p_hit[38] 	0.2537093140682
scalar tree_4_3_u01_r9_network.node[38].content_store 	hits[38] 	3266
scalar tree_4_3_u01_r9_network.node[38].content_store 	misses[38] 	9607
scalar tree_4_3_u01_r9_network.node[38].content_store 	decision_yes[38] 	998
scalar tree_4_3_u01_r9_network.node[38].content_store 	decision_no[38] 	8609
scalar tree_4_3_u01_r9_network.node[38].content_store 	decision_ratio[38] 	0.10388258561466
scalar tree_4_3_u01_r9_network.node[39].core_layer 	interests[39] 	12886
scalar tree_4_3_u01_r9_network.node[39].core_layer 	data[39] 	9445
scalar tree_4_3_u01_r9_network.node[39].content_store 	p_hit[39] 	0.26703399037715
scalar tree_4_3_u01_r9_network.node[39].content_store 	hits[39] 	3441
scalar tree_4_3_u01_r9_network.node[39].content_store 	misses[39] 	9445
scalar tree_4_3_u01_r9_network.node[39].content_store 	decision_yes[39] 	877
scalar tree_4_3_u01_r9_network.node[39].content_store 	decision_no[39] 	8568
scalar tree_4_3_u01_r9_network.node[39].content_store 	decision_ratio[39] 	0.092853361566967
scalar tree_4_3_u01_r9_network.client[13] 	hdistance[13] 	2.8983966244726
scalar tree_4_3_u01_r9_network.client[13] 	downloads[13] 	11850
scalar tree_4_3_u01_r9_network.client[13] 	avg_time[13] 	0.004539749625
scalar tree_4_3_u01_r9_network.client[14] 	hdistance[14] 	2.9343744808108
scalar tree_4_3_u01_r9_network.client[14] 	downloads[14] 	12038
scalar tree_4_3_u01_r9_network.client[14] 	avg_time[14] 	0.004607233207
scalar tree_4_3_u01_r9_network.client[15] 	hdistance[15] 	2.7988210526316
scalar tree_4_3_u01_r9_network.client[15] 	downloads[15] 	11875
scalar tree_4_3_u01_r9_network.client[15] 	avg_time[15] 	0.004354754352
scalar tree_4_3_u01_r9_network.client[16] 	hdistance[16] 	2.8962163053334
scalar tree_4_3_u01_r9_network.client[16] 	downloads[16] 	12131
scalar tree_4_3_u01_r9_network.client[16] 	avg_time[16] 	0.004542453908
scalar tree_4_3_u01_r9_network.client[17] 	hdistance[17] 	2.8832043923134
scalar tree_4_3_u01_r9_network.client[17] 	downloads[17] 	12021
scalar tree_4_3_u01_r9_network.client[17] 	avg_time[17] 	0.00451675935
scalar tree_4_3_u01_r9_network.client[18] 	hdistance[18] 	2.9075616393172
scalar tree_4_3_u01_r9_network.client[18] 	downloads[18] 	12127
scalar tree_4_3_u01_r9_network.client[18] 	avg_time[18] 	0.004561391573
scalar tree_4_3_u01_r9_network.client[19] 	hdistance[19] 	2.9080003379235
scalar tree_4_3_u01_r9_network.client[19] 	downloads[19] 	11837
scalar tree_4_3_u01_r9_network.client[19] 	avg_time[19] 	0.004545743423
scalar tree_4_3_u01_r9_network.client[20] 	hdistance[20] 	2.89070256626
scalar tree_4_3_u01_r9_network.client[20] 	downloads[20] 	11885
scalar tree_4_3_u01_r9_network.client[20] 	avg_time[20] 	0.004520735995
scalar tree_4_3_u01_r9_network.client[21] 	hdistance[21] 	2.9147409693835
scalar tree_4_3_u01_r9_network.client[21] 	downloads[21] 	11987
scalar tree_4_3_u01_r9_network.client[21] 	avg_time[21] 	0.004563440754
scalar tree_4_3_u01_r9_network.client[22] 	hdistance[22] 	2.9305860496538
scalar tree_4_3_u01_r9_network.client[22] 	downloads[22] 	11842
scalar tree_4_3_u01_r9_network.client[22] 	avg_time[22] 	0.004604286855
scalar tree_4_3_u01_r9_network.client[23] 	hdistance[23] 	2.8801828001662
scalar tree_4_3_u01_r9_network.client[23] 	downloads[23] 	12035
scalar tree_4_3_u01_r9_network.client[23] 	avg_time[23] 	0.004515425936
scalar tree_4_3_u01_r9_network.client[24] 	hdistance[24] 	2.8143923853286
scalar tree_4_3_u01_r9_network.client[24] 	downloads[24] 	12187
scalar tree_4_3_u01_r9_network.client[24] 	avg_time[24] 	0.004369899329
scalar tree_4_3_u01_r9_network.client[25] 	hdistance[25] 	2.9013184833347
scalar tree_4_3_u01_r9_network.client[25] 	downloads[25] 	12211
scalar tree_4_3_u01_r9_network.client[25] 	avg_time[25] 	0.004546749207
scalar tree_4_3_u01_r9_network.client[26] 	hdistance[26] 	2.9373074681542
scalar tree_4_3_u01_r9_network.client[26] 	downloads[26] 	12011
scalar tree_4_3_u01_r9_network.client[26] 	avg_time[26] 	0.004614600278
scalar tree_4_3_u01_r9_network.client[27] 	hdistance[27] 	2.9083715118701
scalar tree_4_3_u01_r9_network.client[27] 	downloads[27] 	12005
scalar tree_4_3_u01_r9_network.client[27] 	avg_time[27] 	0.004560263556
scalar tree_4_3_u01_r9_network.client[28] 	hdistance[28] 	2.8718810383937
scalar tree_4_3_u01_r9_network.client[28] 	downloads[28] 	11903
scalar tree_4_3_u01_r9_network.client[28] 	avg_time[28] 	0.004492477896
scalar tree_4_3_u01_r9_network.client[29] 	hdistance[29] 	2.8917741665271
scalar tree_4_3_u01_r9_network.client[29] 	downloads[29] 	11938
scalar tree_4_3_u01_r9_network.client[29] 	avg_time[29] 	0.004533587246
scalar tree_4_3_u01_r9_network.client[30] 	hdistance[30] 	2.9099613640181
scalar tree_4_3_u01_r9_network.client[30] 	downloads[30] 	11906
scalar tree_4_3_u01_r9_network.client[30] 	avg_time[30] 	0.004557241778
scalar tree_4_3_u01_r9_network.client[31] 	hdistance[31] 	2.8976286871024
scalar tree_4_3_u01_r9_network.client[31] 	downloads[31] 	12103
scalar tree_4_3_u01_r9_network.client[31] 	avg_time[31] 	0.004548290777
scalar tree_4_3_u01_r9_network.client[32] 	hdistance[32] 	2.8581335115716
scalar tree_4_3_u01_r9_network.client[32] 	downloads[32] 	11969
scalar tree_4_3_u01_r9_network.client[32] 	avg_time[32] 	0.004481935884
scalar tree_4_3_u01_r9_network.client[33] 	hdistance[33] 	2.9029465623439
scalar tree_4_3_u01_r9_network.client[33] 	downloads[33] 	12014
scalar tree_4_3_u01_r9_network.client[33] 	avg_time[33] 	0.004538868308
scalar tree_4_3_u01_r9_network.client[34] 	hdistance[34] 	2.9288547347546
scalar tree_4_3_u01_r9_network.client[34] 	downloads[34] 	12102
scalar tree_4_3_u01_r9_network.client[34] 	avg_time[34] 	0.004596459372
scalar tree_4_3_u01_r9_network.client[35] 	hdistance[35] 	2.9123382081022
scalar tree_4_3_u01_r9_network.client[35] 	downloads[35] 	11898
scalar tree_4_3_u01_r9_network.client[35] 	avg_time[35] 	0.004572025928
scalar tree_4_3_u01_r9_network.client[36] 	hdistance[36] 	2.9324017173163
scalar tree_4_3_u01_r9_network.client[36] 	downloads[36] 	11879
scalar tree_4_3_u01_r9_network.client[36] 	avg_time[36] 	0.004599480199
scalar tree_4_3_u01_r9_network.client[37] 	hdistance[37] 	2.7921803749367
scalar tree_4_3_u01_r9_network.client[37] 	downloads[37] 	11842
scalar tree_4_3_u01_r9_network.client[37] 	avg_time[37] 	0.004335751165
scalar tree_4_3_u01_r9_network.client[38] 	hdistance[38] 	2.9013538055143
scalar tree_4_3_u01_r9_network.client[38] 	downloads[38] 	12114
scalar tree_4_3_u01_r9_network.client[38] 	avg_time[38] 	0.004547627829
scalar tree_4_3_u01_r9_network.client[39] 	hdistance[39] 	2.9001245330012
scalar tree_4_3_u01_r9_network.client[39] 	downloads[39] 	12045
scalar tree_4_3_u01_r9_network.client[39] 	avg_time[39] 	0.004546447798
