version 2
run General-22-20160819-07:04:28-13837
attr a 0.9
attr cd fix0.1
attr configname General
attr cr lru
attr datetime 20160819-07:04:28
attr experiment General
attr fsize 1
attr inifile hw5115/scenario_A/NRR-FIX0.1.ini
attr iterationvars "$name=tree_4_3, $un=01, $rep=3, $cd=fix0.1, $cr=lru, $fsize=1, $a=0.9, $sl=nrr, $ttl=1000, $variance=0.05"
attr iterationvars2 "$name=tree_4_3, $un=01, $rep=3, $cd=fix0.1, $cr=lru, $fsize=1, $a=0.9, $sl=nrr, $ttl=1000, $variance=0.05, $repetition=0"
attr measurement "$name=tree_4_3, $un=01, $rep=3, $cd=fix0.1, $cr=lru, $fsize=1, $a=0.9, $sl=nrr, $ttl=1000, $variance=0.05"
attr name tree_4_3
attr network networks.${name}_u${un}_r${rep}_network
attr processid 13837
attr rep 3
attr repetition 0
attr replication #0
attr resultdir results
attr runnumber 22
attr seedset 3
attr sl nrr
attr ttl 1000
attr un 01
attr variance 0.05

scalar . 	a 	0.9
scalar . 	fsize 	1
scalar . 	rep 	3
scalar . 	ttl 	1000
scalar . 	un 	01
scalar . 	variance 	0.05
scalar tree_4_3_u01_r3_network.content_distribution 	repo-0 	0
scalar tree_4_3_u01_r3_network.content_distribution 	client-0 	13
scalar tree_4_3_u01_r3_network.content_distribution 	client-1 	14
scalar tree_4_3_u01_r3_network.content_distribution 	client-2 	15
scalar tree_4_3_u01_r3_network.content_distribution 	client-3 	16
scalar tree_4_3_u01_r3_network.content_distribution 	client-4 	17
scalar tree_4_3_u01_r3_network.content_distribution 	client-5 	18
scalar tree_4_3_u01_r3_network.content_distribution 	client-6 	19
scalar tree_4_3_u01_r3_network.content_distribution 	client-7 	20
scalar tree_4_3_u01_r3_network.content_distribution 	client-8 	21
scalar tree_4_3_u01_r3_network.content_distribution 	client-9 	22
scalar tree_4_3_u01_r3_network.content_distribution 	client-10 	23
scalar tree_4_3_u01_r3_network.content_distribution 	client-11 	24
scalar tree_4_3_u01_r3_network.content_distribution 	client-12 	25
scalar tree_4_3_u01_r3_network.content_distribution 	client-13 	26
scalar tree_4_3_u01_r3_network.content_distribution 	client-14 	27
scalar tree_4_3_u01_r3_network.content_distribution 	client-15 	28
scalar tree_4_3_u01_r3_network.content_distribution 	client-16 	29
scalar tree_4_3_u01_r3_network.content_distribution 	client-17 	30
scalar tree_4_3_u01_r3_network.content_distribution 	client-18 	31
scalar tree_4_3_u01_r3_network.content_distribution 	client-19 	32
scalar tree_4_3_u01_r3_network.content_distribution 	client-20 	33
scalar tree_4_3_u01_r3_network.content_distribution 	client-21 	34
scalar tree_4_3_u01_r3_network.content_distribution 	client-22 	35
scalar tree_4_3_u01_r3_network.content_distribution 	client-23 	36
scalar tree_4_3_u01_r3_network.content_distribution 	client-24 	37
scalar tree_4_3_u01_r3_network.content_distribution 	client-25 	38
scalar tree_4_3_u01_r3_network.content_distribution 	client-26 	39
scalar tree_4_3_u01_r3_network.content_distribution 	repo-0_card 	100000
scalar tree_4_3_u01_r3_network.content_distribution 	repo-0_price 	0
scalar tree_4_3_u01_r3_network.statistics 	stabilization_time 	795.1
scalar tree_4_3_u01_r3_network.statistics 	p_hit 	0.20552845893781
scalar tree_4_3_u01_r3_network.statistics 	interests 	26589
scalar tree_4_3_u01_r3_network.statistics 	data 	18495.45
scalar tree_4_3_u01_r3_network.statistics 	hdistance 	2.9024095358124
scalar tree_4_3_u01_r3_network.statistics 	avg_time 	0.004570692233
scalar tree_4_3_u01_r3_network.statistics 	downloads 	323724
scalar tree_4_3_u01_r3_network.statistics 	total_cost 	0
scalar tree_4_3_u01_r3_network.statistics 	total_replicas 	100000
scalar tree_4_3_u01_r3_network.statistics 	inner_hit 	0.38294658412722
scalar tree_4_3_u01_r3_network.node[0].core_layer 	interests[0] 	201232
scalar tree_4_3_u01_r3_network.node[0].core_layer 	repo_load[0] 	199755
scalar tree_4_3_u01_r3_network.node[0].core_layer 	data[0] 	0
scalar tree_4_3_u01_r3_network.node[0].core_layer 	repo_int[0] 	199755
scalar tree_4_3_u01_r3_network.node[0].content_store 	p_hit[0] 	0.0073397869126183
scalar tree_4_3_u01_r3_network.node[0].content_store 	hits[0] 	1477
scalar tree_4_3_u01_r3_network.node[0].content_store 	misses[0] 	199755
scalar tree_4_3_u01_r3_network.node[0].content_store 	decision_yes[0] 	19903
scalar tree_4_3_u01_r3_network.node[0].content_store 	decision_no[0] 	179852
scalar tree_4_3_u01_r3_network.node[0].content_store 	decision_ratio[0] 	0.099637055392856
scalar tree_4_3_u01_r3_network.node[1].core_layer 	interests[1] 	76696
scalar tree_4_3_u01_r3_network.node[1].core_layer 	data[1] 	75518
scalar tree_4_3_u01_r3_network.node[1].content_store 	p_hit[1] 	0.015333263794722
scalar tree_4_3_u01_r3_network.node[1].content_store 	hits[1] 	1176
scalar tree_4_3_u01_r3_network.node[1].content_store 	misses[1] 	75520
scalar tree_4_3_u01_r3_network.node[1].content_store 	decision_yes[1] 	7533
scalar tree_4_3_u01_r3_network.node[1].content_store 	decision_no[1] 	67985
scalar tree_4_3_u01_r3_network.node[1].content_store 	decision_ratio[1] 	0.099751052729151
scalar tree_4_3_u01_r3_network.node[2].core_layer 	interests[2] 	98164
scalar tree_4_3_u01_r3_network.node[2].core_layer 	data[2] 	97030
scalar tree_4_3_u01_r3_network.node[2].content_store 	p_hit[2] 	0.011511348355813
scalar tree_4_3_u01_r3_network.node[2].content_store 	hits[2] 	1130
scalar tree_4_3_u01_r3_network.node[2].content_store 	misses[2] 	97034
scalar tree_4_3_u01_r3_network.node[2].content_store 	decision_yes[2] 	9636
scalar tree_4_3_u01_r3_network.node[2].content_store 	decision_no[2] 	87394
scalar tree_4_3_u01_r3_network.node[2].content_store 	decision_ratio[2] 	0.099309491909719
scalar tree_4_3_u01_r3_network.node[3].core_layer 	interests[3] 	53026
scalar tree_4_3_u01_r3_network.node[3].core_layer 	data[3] 	51776
scalar tree_4_3_u01_r3_network.node[3].content_store 	p_hit[3] 	0.023497906687285
scalar tree_4_3_u01_r3_network.node[3].content_store 	hits[3] 	1246
scalar tree_4_3_u01_r3_network.node[3].content_store 	misses[3] 	51780
scalar tree_4_3_u01_r3_network.node[3].content_store 	decision_yes[3] 	5093
scalar tree_4_3_u01_r3_network.node[3].content_store 	decision_no[3] 	46681
scalar tree_4_3_u01_r3_network.node[3].content_store 	decision_ratio[3] 	0.098369838142697
scalar tree_4_3_u01_r3_network.node[4].core_layer 	interests[4] 	30844
scalar tree_4_3_u01_r3_network.node[4].core_layer 	data[4] 	28868
scalar tree_4_3_u01_r3_network.node[4].content_store 	p_hit[4] 	0.064064323693425
scalar tree_4_3_u01_r3_network.node[4].content_store 	hits[4] 	1976
scalar tree_4_3_u01_r3_network.node[4].content_store 	misses[4] 	28868
scalar tree_4_3_u01_r3_network.node[4].content_store 	decision_yes[4] 	2809
scalar tree_4_3_u01_r3_network.node[4].content_store 	decision_no[4] 	26059
scalar tree_4_3_u01_r3_network.node[4].content_store 	decision_ratio[4] 	0.09730497436608
scalar tree_4_3_u01_r3_network.node[5].core_layer 	interests[5] 	30753
scalar tree_4_3_u01_r3_network.node[5].core_layer 	data[5] 	28551
scalar tree_4_3_u01_r3_network.node[5].content_store 	p_hit[5] 	0.071537736155822
scalar tree_4_3_u01_r3_network.node[5].content_store 	hits[5] 	2200
scalar tree_4_3_u01_r3_network.node[5].content_store 	misses[5] 	28553
scalar tree_4_3_u01_r3_network.node[5].content_store 	decision_yes[5] 	2805
scalar tree_4_3_u01_r3_network.node[5].content_store 	decision_no[5] 	25746
scalar tree_4_3_u01_r3_network.node[5].content_store 	decision_ratio[5] 	0.098245245350426
scalar tree_4_3_u01_r3_network.node[6].core_layer 	interests[6] 	30732
scalar tree_4_3_u01_r3_network.node[6].core_layer 	data[6] 	28957
scalar tree_4_3_u01_r3_network.node[6].content_store 	p_hit[6] 	0.057692307692308
scalar tree_4_3_u01_r3_network.node[6].content_store 	hits[6] 	1773
scalar tree_4_3_u01_r3_network.node[6].content_store 	misses[6] 	28959
scalar tree_4_3_u01_r3_network.node[6].content_store 	decision_yes[6] 	2929
scalar tree_4_3_u01_r3_network.node[6].content_store 	decision_no[6] 	26028
scalar tree_4_3_u01_r3_network.node[6].content_store 	decision_ratio[6] 	0.10114998100632
scalar tree_4_3_u01_r3_network.node[7].core_layer 	interests[7] 	38894
scalar tree_4_3_u01_r3_network.node[7].core_layer 	data[7] 	36900
scalar tree_4_3_u01_r3_network.node[7].content_store 	p_hit[7] 	0.051241836787165
scalar tree_4_3_u01_r3_network.node[7].content_store 	hits[7] 	1993
scalar tree_4_3_u01_r3_network.node[7].content_store 	misses[7] 	36901
scalar tree_4_3_u01_r3_network.node[7].content_store 	decision_yes[7] 	3644
scalar tree_4_3_u01_r3_network.node[7].content_store 	decision_no[7] 	33256
scalar tree_4_3_u01_r3_network.node[7].content_store 	decision_ratio[7] 	0.098753387533875
scalar tree_4_3_u01_r3_network.node[8].core_layer 	interests[8] 	21914
scalar tree_4_3_u01_r3_network.node[8].core_layer 	data[8] 	19456
scalar tree_4_3_u01_r3_network.node[8].content_store 	p_hit[8] 	0.11216573879712
scalar tree_4_3_u01_r3_network.node[8].content_store 	hits[8] 	2458
scalar tree_4_3_u01_r3_network.node[8].content_store 	misses[8] 	19456
scalar tree_4_3_u01_r3_network.node[8].content_store 	decision_yes[8] 	1916
scalar tree_4_3_u01_r3_network.node[8].content_store 	decision_no[8] 	17540
scalar tree_4_3_u01_r3_network.node[8].content_store 	decision_ratio[8] 	0.098478618421053
scalar tree_4_3_u01_r3_network.node[9].core_layer 	interests[9] 	31494
scalar tree_4_3_u01_r3_network.node[9].core_layer 	data[9] 	28970
scalar tree_4_3_u01_r3_network.node[9].content_store 	p_hit[9] 	0.080110497237569
scalar tree_4_3_u01_r3_network.node[9].content_store 	hits[9] 	2523
scalar tree_4_3_u01_r3_network.node[9].content_store 	misses[9] 	28971
scalar tree_4_3_u01_r3_network.node[9].content_store 	decision_yes[9] 	2850
scalar tree_4_3_u01_r3_network.node[9].content_store 	decision_no[9] 	26120
scalar tree_4_3_u01_r3_network.node[9].content_store 	decision_ratio[9] 	0.098377632033138
scalar tree_4_3_u01_r3_network.node[10].core_layer 	interests[10] 	30350
scalar tree_4_3_u01_r3_network.node[10].core_layer 	data[10] 	28512
scalar tree_4_3_u01_r3_network.node[10].content_store 	p_hit[10] 	0.060494233937397
scalar tree_4_3_u01_r3_network.node[10].content_store 	hits[10] 	1836
scalar tree_4_3_u01_r3_network.node[10].content_store 	misses[10] 	28514
scalar tree_4_3_u01_r3_network.node[10].content_store 	decision_yes[10] 	2822
scalar tree_4_3_u01_r3_network.node[10].content_store 	decision_no[10] 	25690
scalar tree_4_3_u01_r3_network.node[10].content_store 	decision_ratio[10] 	0.098975869809203
scalar tree_4_3_u01_r3_network.node[11].core_layer 	interests[11] 	34142
scalar tree_4_3_u01_r3_network.node[11].core_layer 	data[11] 	30675
scalar tree_4_3_u01_r3_network.node[11].content_store 	p_hit[11] 	0.10151719290024
scalar tree_4_3_u01_r3_network.node[11].content_store 	hits[11] 	3466
scalar tree_4_3_u01_r3_network.node[11].content_store 	misses[11] 	30676
scalar tree_4_3_u01_r3_network.node[11].content_store 	decision_yes[11] 	2958
scalar tree_4_3_u01_r3_network.node[11].content_store 	decision_no[11] 	27717
scalar tree_4_3_u01_r3_network.node[11].content_store 	decision_ratio[11] 	0.096430317848411
scalar tree_4_3_u01_r3_network.node[12].core_layer 	interests[12] 	30248
scalar tree_4_3_u01_r3_network.node[12].core_layer 	data[12] 	28333
scalar tree_4_3_u01_r3_network.node[12].content_store 	p_hit[12] 	0.063243850833113
scalar tree_4_3_u01_r3_network.node[12].content_store 	hits[12] 	1913
scalar tree_4_3_u01_r3_network.node[12].content_store 	misses[12] 	28335
scalar tree_4_3_u01_r3_network.node[12].content_store 	decision_yes[12] 	2824
scalar tree_4_3_u01_r3_network.node[12].content_store 	decision_no[12] 	25507
scalar tree_4_3_u01_r3_network.node[12].content_store 	decision_ratio[12] 	0.099678797077406
scalar tree_4_3_u01_r3_network.node[13].core_layer 	interests[13] 	13108
scalar tree_4_3_u01_r3_network.node[13].core_layer 	data[13] 	9653
scalar tree_4_3_u01_r3_network.node[13].content_store 	p_hit[13] 	0.26357949343912
scalar tree_4_3_u01_r3_network.node[13].content_store 	hits[13] 	3455
scalar tree_4_3_u01_r3_network.node[13].content_store 	misses[13] 	9653
scalar tree_4_3_u01_r3_network.node[13].content_store 	decision_yes[13] 	1010
scalar tree_4_3_u01_r3_network.node[13].content_store 	decision_no[13] 	8643
scalar tree_4_3_u01_r3_network.node[13].content_store 	decision_ratio[13] 	0.10463068476121
scalar tree_4_3_u01_r3_network.node[14].core_layer 	interests[14] 	12959
scalar tree_4_3_u01_r3_network.node[14].core_layer 	data[14] 	9492
scalar tree_4_3_u01_r3_network.node[14].content_store 	p_hit[14] 	0.26753607531445
scalar tree_4_3_u01_r3_network.node[14].content_store 	hits[14] 	3467
scalar tree_4_3_u01_r3_network.node[14].content_store 	misses[14] 	9492
scalar tree_4_3_u01_r3_network.node[14].content_store 	decision_yes[14] 	953
scalar tree_4_3_u01_r3_network.node[14].content_store 	decision_no[14] 	8539
scalar tree_4_3_u01_r3_network.node[14].content_store 	decision_ratio[14] 	0.100400337126
scalar tree_4_3_u01_r3_network.node[15].core_layer 	interests[15] 	13111
scalar tree_4_3_u01_r3_network.node[15].core_layer 	data[15] 	9369
scalar tree_4_3_u01_r3_network.node[15].content_store 	p_hit[15] 	0.28540919838304
scalar tree_4_3_u01_r3_network.node[15].content_store 	hits[15] 	3742
scalar tree_4_3_u01_r3_network.node[15].content_store 	misses[15] 	9369
scalar tree_4_3_u01_r3_network.node[15].content_store 	decision_yes[15] 	912
scalar tree_4_3_u01_r3_network.node[15].content_store 	decision_no[15] 	8457
scalar tree_4_3_u01_r3_network.node[15].content_store 	decision_ratio[15] 	0.097342299071406
scalar tree_4_3_u01_r3_network.node[16].core_layer 	interests[16] 	13064
scalar tree_4_3_u01_r3_network.node[16].core_layer 	data[16] 	9414
scalar tree_4_3_u01_r3_network.node[16].content_store 	p_hit[16] 	0.27939375382731
scalar tree_4_3_u01_r3_network.node[16].content_store 	hits[16] 	3650
scalar tree_4_3_u01_r3_network.node[16].content_store 	misses[16] 	9414
scalar tree_4_3_u01_r3_network.node[16].content_store 	decision_yes[16] 	918
scalar tree_4_3_u01_r3_network.node[16].content_store 	decision_no[16] 	8496
scalar tree_4_3_u01_r3_network.node[16].content_store 	decision_ratio[16] 	0.097514340344168
scalar tree_4_3_u01_r3_network.node[17].core_layer 	interests[17] 	13009
scalar tree_4_3_u01_r3_network.node[17].core_layer 	data[17] 	9629
scalar tree_4_3_u01_r3_network.node[17].content_store 	p_hit[17] 	0.25982012452917
scalar tree_4_3_u01_r3_network.node[17].content_store 	hits[17] 	3380
scalar tree_4_3_u01_r3_network.node[17].content_store 	misses[17] 	9629
scalar tree_4_3_u01_r3_network.node[17].content_store 	decision_yes[17] 	1013
scalar tree_4_3_u01_r3_network.node[17].content_store 	decision_no[17] 	8616
scalar tree_4_3_u01_r3_network.node[17].content_store 	decision_ratio[17] 	0.10520303250597
scalar tree_4_3_u01_r3_network.node[18].core_layer 	interests[18] 	13115
scalar tree_4_3_u01_r3_network.node[18].core_layer 	data[18] 	9410
scalar tree_4_3_u01_r3_network.node[18].content_store 	p_hit[18] 	0.28250095310713
scalar tree_4_3_u01_r3_network.node[18].content_store 	hits[18] 	3705
scalar tree_4_3_u01_r3_network.node[18].content_store 	misses[18] 	9410
scalar tree_4_3_u01_r3_network.node[18].content_store 	decision_yes[18] 	922
scalar tree_4_3_u01_r3_network.node[18].content_store 	decision_no[18] 	8488
scalar tree_4_3_u01_r3_network.node[18].content_store 	decision_ratio[18] 	0.09798087141339
scalar tree_4_3_u01_r3_network.node[19].core_layer 	interests[19] 	13116
scalar tree_4_3_u01_r3_network.node[19].core_layer 	data[19] 	9547
scalar tree_4_3_u01_r3_network.node[19].content_store 	p_hit[19] 	0.27203415675511
scalar tree_4_3_u01_r3_network.node[19].content_store 	hits[19] 	3568
scalar tree_4_3_u01_r3_network.node[19].content_store 	misses[19] 	9548
scalar tree_4_3_u01_r3_network.node[19].content_store 	decision_yes[19] 	961
scalar tree_4_3_u01_r3_network.node[19].content_store 	decision_no[19] 	8586
scalar tree_4_3_u01_r3_network.node[19].content_store 	decision_ratio[19] 	0.10065989316016
scalar tree_4_3_u01_r3_network.node[20].core_layer 	interests[20] 	13119
scalar tree_4_3_u01_r3_network.node[20].core_layer 	data[20] 	9396
scalar tree_4_3_u01_r3_network.node[20].content_store 	p_hit[20] 	0.28371064867749
scalar tree_4_3_u01_r3_network.node[20].content_store 	hits[20] 	3722
scalar tree_4_3_u01_r3_network.node[20].content_store 	misses[20] 	9397
scalar tree_4_3_u01_r3_network.node[20].content_store 	decision_yes[20] 	971
scalar tree_4_3_u01_r3_network.node[20].content_store 	decision_no[20] 	8425
scalar tree_4_3_u01_r3_network.node[20].content_store 	decision_ratio[20] 	0.10334184759472
scalar tree_4_3_u01_r3_network.node[21].core_layer 	interests[21] 	13089
scalar tree_4_3_u01_r3_network.node[21].core_layer 	data[21] 	9458
scalar tree_4_3_u01_r3_network.node[21].content_store 	p_hit[21] 	0.2774085109634
scalar tree_4_3_u01_r3_network.node[21].content_store 	hits[21] 	3631
scalar tree_4_3_u01_r3_network.node[21].content_store 	misses[21] 	9458
scalar tree_4_3_u01_r3_network.node[21].content_store 	decision_yes[21] 	967
scalar tree_4_3_u01_r3_network.node[21].content_store 	decision_no[21] 	8491
scalar tree_4_3_u01_r3_network.node[21].content_store 	decision_ratio[21] 	0.10224148868683
scalar tree_4_3_u01_r3_network.node[22].core_layer 	interests[22] 	12902
scalar tree_4_3_u01_r3_network.node[22].core_layer 	data[22] 	9349
scalar tree_4_3_u01_r3_network.node[22].content_store 	p_hit[22] 	0.27538366144784
scalar tree_4_3_u01_r3_network.node[22].content_store 	hits[22] 	3553
scalar tree_4_3_u01_r3_network.node[22].content_store 	misses[22] 	9349
scalar tree_4_3_u01_r3_network.node[22].content_store 	decision_yes[22] 	922
scalar tree_4_3_u01_r3_network.node[22].content_store 	decision_no[22] 	8427
scalar tree_4_3_u01_r3_network.node[22].content_store 	decision_ratio[22] 	0.098620173280565
scalar tree_4_3_u01_r3_network.node[23].core_layer 	interests[23] 	13114
scalar tree_4_3_u01_r3_network.node[23].core_layer 	data[23] 	9538
scalar tree_4_3_u01_r3_network.node[23].content_store 	p_hit[23] 	0.27268567942657
scalar tree_4_3_u01_r3_network.node[23].content_store 	hits[23] 	3576
scalar tree_4_3_u01_r3_network.node[23].content_store 	misses[23] 	9538
scalar tree_4_3_u01_r3_network.node[23].content_store 	decision_yes[23] 	972
scalar tree_4_3_u01_r3_network.node[23].content_store 	decision_no[23] 	8566
scalar tree_4_3_u01_r3_network.node[23].content_store 	decision_ratio[23] 	0.1019081568463
scalar tree_4_3_u01_r3_network.node[24].core_layer 	interests[24] 	14082
scalar tree_4_3_u01_r3_network.node[24].core_layer 	data[24] 	9447
scalar tree_4_3_u01_r3_network.node[24].content_store 	p_hit[24] 	0.32914358755859
scalar tree_4_3_u01_r3_network.node[24].content_store 	hits[24] 	4635
scalar tree_4_3_u01_r3_network.node[24].content_store 	misses[24] 	9447
scalar tree_4_3_u01_r3_network.node[24].content_store 	decision_yes[24] 	954
scalar tree_4_3_u01_r3_network.node[24].content_store 	decision_no[24] 	8493
scalar tree_4_3_u01_r3_network.node[24].content_store 	decision_ratio[24] 	0.1009844395046
scalar tree_4_3_u01_r3_network.node[25].core_layer 	interests[25] 	13959
scalar tree_4_3_u01_r3_network.node[25].core_layer 	data[25] 	9516
scalar tree_4_3_u01_r3_network.node[25].content_store 	p_hit[25] 	0.31828927573608
scalar tree_4_3_u01_r3_network.node[25].content_store 	hits[25] 	4443
scalar tree_4_3_u01_r3_network.node[25].content_store 	misses[25] 	9516
scalar tree_4_3_u01_r3_network.node[25].content_store 	decision_yes[25] 	925
scalar tree_4_3_u01_r3_network.node[25].content_store 	decision_no[25] 	8591
scalar tree_4_3_u01_r3_network.node[25].content_store 	decision_ratio[25] 	0.097204707860446
scalar tree_4_3_u01_r3_network.node[26].core_layer 	interests[26] 	12877
scalar tree_4_3_u01_r3_network.node[26].core_layer 	data[26] 	9556
scalar tree_4_3_u01_r3_network.node[26].content_store 	p_hit[26] 	0.25782402733556
scalar tree_4_3_u01_r3_network.node[26].content_store 	hits[26] 	3320
scalar tree_4_3_u01_r3_network.node[26].content_store 	misses[26] 	9557
scalar tree_4_3_u01_r3_network.node[26].content_store 	decision_yes[26] 	950
scalar tree_4_3_u01_r3_network.node[26].content_store 	decision_no[26] 	8606
scalar tree_4_3_u01_r3_network.node[26].content_store 	decision_ratio[26] 	0.099413980745082
scalar tree_4_3_u01_r3_network.node[27].core_layer 	interests[27] 	12887
scalar tree_4_3_u01_r3_network.node[27].core_layer 	data[27] 	9423
scalar tree_4_3_u01_r3_network.node[27].content_store 	p_hit[27] 	0.26879801350198
scalar tree_4_3_u01_r3_network.node[27].content_store 	hits[27] 	3464
scalar tree_4_3_u01_r3_network.node[27].content_store 	misses[27] 	9423
scalar tree_4_3_u01_r3_network.node[27].content_store 	decision_yes[27] 	954
scalar tree_4_3_u01_r3_network.node[27].content_store 	decision_no[27] 	8469
scalar tree_4_3_u01_r3_network.node[27].content_store 	decision_ratio[27] 	0.10124164278892
scalar tree_4_3_u01_r3_network.node[28].core_layer 	interests[28] 	13105
scalar tree_4_3_u01_r3_network.node[28].core_layer 	data[28] 	9668
scalar tree_4_3_u01_r3_network.node[28].content_store 	p_hit[28] 	0.26226631056849
scalar tree_4_3_u01_r3_network.node[28].content_store 	hits[28] 	3437
scalar tree_4_3_u01_r3_network.node[28].content_store 	misses[28] 	9668
scalar tree_4_3_u01_r3_network.node[28].content_store 	decision_yes[28] 	913
scalar tree_4_3_u01_r3_network.node[28].content_store 	decision_no[28] 	8755
scalar tree_4_3_u01_r3_network.node[28].content_store 	decision_ratio[28] 	0.094435250310302
scalar tree_4_3_u01_r3_network.node[29].core_layer 	interests[29] 	12739
scalar tree_4_3_u01_r3_network.node[29].core_layer 	data[29] 	9370
scalar tree_4_3_u01_r3_network.node[29].content_store 	p_hit[29] 	0.26446345867023
scalar tree_4_3_u01_r3_network.node[29].content_store 	hits[29] 	3369
scalar tree_4_3_u01_r3_network.node[29].content_store 	misses[29] 	9370
scalar tree_4_3_u01_r3_network.node[29].content_store 	decision_yes[29] 	989
scalar tree_4_3_u01_r3_network.node[29].content_store 	decision_no[29] 	8381
scalar tree_4_3_u01_r3_network.node[29].content_store 	decision_ratio[29] 	0.10554962646745
scalar tree_4_3_u01_r3_network.node[30].core_layer 	interests[30] 	13110
scalar tree_4_3_u01_r3_network.node[30].core_layer 	data[30] 	9471
scalar tree_4_3_u01_r3_network.node[30].content_store 	p_hit[30] 	0.27757437070938
scalar tree_4_3_u01_r3_network.node[30].content_store 	hits[30] 	3639
scalar tree_4_3_u01_r3_network.node[30].content_store 	misses[30] 	9471
scalar tree_4_3_u01_r3_network.node[30].content_store 	decision_yes[30] 	985
scalar tree_4_3_u01_r3_network.node[30].content_store 	decision_no[30] 	8486
scalar tree_4_3_u01_r3_network.node[30].content_store 	decision_ratio[30] 	0.10400168936754
scalar tree_4_3_u01_r3_network.node[31].core_layer 	interests[31] 	12972
scalar tree_4_3_u01_r3_network.node[31].core_layer 	data[31] 	9574
scalar tree_4_3_u01_r3_network.node[31].content_store 	p_hit[31] 	0.26194881282763
scalar tree_4_3_u01_r3_network.node[31].content_store 	hits[31] 	3398
scalar tree_4_3_u01_r3_network.node[31].content_store 	misses[31] 	9574
scalar tree_4_3_u01_r3_network.node[31].content_store 	decision_yes[31] 	926
scalar tree_4_3_u01_r3_network.node[31].content_store 	decision_no[31] 	8648
scalar tree_4_3_u01_r3_network.node[31].content_store 	decision_ratio[31] 	0.096720284102778
scalar tree_4_3_u01_r3_network.node[32].core_layer 	interests[32] 	12969
scalar tree_4_3_u01_r3_network.node[32].core_layer 	data[32] 	9508
scalar tree_4_3_u01_r3_network.node[32].content_store 	p_hit[32] 	0.2667900377824
scalar tree_4_3_u01_r3_network.node[32].content_store 	hits[32] 	3460
scalar tree_4_3_u01_r3_network.node[32].content_store 	misses[32] 	9509
scalar tree_4_3_u01_r3_network.node[32].content_store 	decision_yes[32] 	976
scalar tree_4_3_u01_r3_network.node[32].content_store 	decision_no[32] 	8532
scalar tree_4_3_u01_r3_network.node[32].content_store 	decision_ratio[32] 	0.10265039966344
scalar tree_4_3_u01_r3_network.node[33].core_layer 	interests[33] 	12928
scalar tree_4_3_u01_r3_network.node[33].core_layer 	data[33] 	9408
scalar tree_4_3_u01_r3_network.node[33].content_store 	p_hit[33] 	0.27227722772277
scalar tree_4_3_u01_r3_network.node[33].content_store 	hits[33] 	3520
scalar tree_4_3_u01_r3_network.node[33].content_store 	misses[33] 	9408
scalar tree_4_3_u01_r3_network.node[33].content_store 	decision_yes[33] 	894
scalar tree_4_3_u01_r3_network.node[33].content_store 	decision_no[33] 	8514
scalar tree_4_3_u01_r3_network.node[33].content_store 	decision_ratio[33] 	0.095025510204082
scalar tree_4_3_u01_r3_network.node[34].core_layer 	interests[34] 	13514
scalar tree_4_3_u01_r3_network.node[34].core_layer 	data[34] 	9407
scalar tree_4_3_u01_r3_network.node[34].content_store 	p_hit[34] 	0.30390705934586
scalar tree_4_3_u01_r3_network.node[34].content_store 	hits[34] 	4107
scalar tree_4_3_u01_r3_network.node[34].content_store 	misses[34] 	9407
scalar tree_4_3_u01_r3_network.node[34].content_store 	decision_yes[34] 	946
scalar tree_4_3_u01_r3_network.node[34].content_store 	decision_no[34] 	8461
scalar tree_4_3_u01_r3_network.node[34].content_store 	decision_ratio[34] 	0.10056341022643
scalar tree_4_3_u01_r3_network.node[35].core_layer 	interests[35] 	13705
scalar tree_4_3_u01_r3_network.node[35].core_layer 	data[35] 	9681
scalar tree_4_3_u01_r3_network.node[35].content_store 	p_hit[35] 	0.293615468807
scalar tree_4_3_u01_r3_network.node[35].content_store 	hits[35] 	4024
scalar tree_4_3_u01_r3_network.node[35].content_store 	misses[35] 	9681
scalar tree_4_3_u01_r3_network.node[35].content_store 	decision_yes[35] 	928
scalar tree_4_3_u01_r3_network.node[35].content_store 	decision_no[35] 	8753
scalar tree_4_3_u01_r3_network.node[35].content_store 	decision_ratio[35] 	0.095857865922942
scalar tree_4_3_u01_r3_network.node[36].core_layer 	interests[36] 	13759
scalar tree_4_3_u01_r3_network.node[36].core_layer 	data[36] 	9649
scalar tree_4_3_u01_r3_network.node[36].content_store 	p_hit[36] 	0.29871356930009
scalar tree_4_3_u01_r3_network.node[36].content_store 	hits[36] 	4110
scalar tree_4_3_u01_r3_network.node[36].content_store 	misses[36] 	9649
scalar tree_4_3_u01_r3_network.node[36].content_store 	decision_yes[36] 	975
scalar tree_4_3_u01_r3_network.node[36].content_store 	decision_no[36] 	8674
scalar tree_4_3_u01_r3_network.node[36].content_store 	decision_ratio[36] 	0.10104674059488
scalar tree_4_3_u01_r3_network.node[37].core_layer 	interests[37] 	12846
scalar tree_4_3_u01_r3_network.node[37].core_layer 	data[37] 	9341
scalar tree_4_3_u01_r3_network.node[37].content_store 	p_hit[37] 	0.27276973376927
scalar tree_4_3_u01_r3_network.node[37].content_store 	hits[37] 	3504
scalar tree_4_3_u01_r3_network.node[37].content_store 	misses[37] 	9342
scalar tree_4_3_u01_r3_network.node[37].content_store 	decision_yes[37] 	922
scalar tree_4_3_u01_r3_network.node[37].content_store 	decision_no[37] 	8419
scalar tree_4_3_u01_r3_network.node[37].content_store 	decision_ratio[37] 	0.098704635478
scalar tree_4_3_u01_r3_network.node[38].core_layer 	interests[38] 	13145
scalar tree_4_3_u01_r3_network.node[38].core_layer 	data[38] 	9634
scalar tree_4_3_u01_r3_network.node[38].content_store 	p_hit[38] 	0.26709775580068
scalar tree_4_3_u01_r3_network.node[38].content_store 	hits[38] 	3511
scalar tree_4_3_u01_r3_network.node[38].content_store 	misses[38] 	9634
scalar tree_4_3_u01_r3_network.node[38].content_store 	decision_yes[38] 	999
scalar tree_4_3_u01_r3_network.node[38].content_store 	decision_no[38] 	8635
scalar tree_4_3_u01_r3_network.node[38].content_store 	decision_ratio[38] 	0.10369524600374
scalar tree_4_3_u01_r3_network.node[39].core_layer 	interests[39] 	12768
scalar tree_4_3_u01_r3_network.node[39].core_layer 	data[39] 	9364
scalar tree_4_3_u01_r3_network.node[39].content_store 	p_hit[39] 	0.26644736842105
scalar tree_4_3_u01_r3_network.node[39].content_store 	hits[39] 	3402
scalar tree_4_3_u01_r3_network.node[39].content_store 	misses[39] 	9366
scalar tree_4_3_u01_r3_network.node[39].content_store 	decision_yes[39] 	958
scalar tree_4_3_u01_r3_network.node[39].content_store 	decision_no[39] 	8406
scalar tree_4_3_u01_r3_network.node[39].content_store 	decision_ratio[39] 	0.10230670653567
scalar tree_4_3_u01_r3_network.client[13] 	hdistance[13] 	2.9350049488618
scalar tree_4_3_u01_r3_network.client[13] 	downloads[13] 	12124
scalar tree_4_3_u01_r3_network.client[13] 	avg_time[13] 	0.004604582924
scalar tree_4_3_u01_r3_network.client[14] 	hdistance[14] 	2.9333165364911
scalar tree_4_3_u01_r3_network.client[14] 	downloads[14] 	11907
scalar tree_4_3_u01_r3_network.client[14] 	avg_time[14] 	0.00460940412
scalar tree_4_3_u01_r3_network.client[15] 	hdistance[15] 	2.917652984135
scalar tree_4_3_u01_r3_network.client[15] 	downloads[15] 	11913
scalar tree_4_3_u01_r3_network.client[15] 	avg_time[15] 	0.004565933381
scalar tree_4_3_u01_r3_network.client[16] 	hdistance[16] 	2.8895184135977
scalar tree_4_3_u01_r3_network.client[16] 	downloads[16] 	12002
scalar tree_4_3_u01_r3_network.client[16] 	avg_time[16] 	0.004535574386
scalar tree_4_3_u01_r3_network.client[17] 	hdistance[17] 	2.9321582973063
scalar tree_4_3_u01_r3_network.client[17] 	downloads[17] 	12028
scalar tree_4_3_u01_r3_network.client[17] 	avg_time[17] 	0.004608789623
scalar tree_4_3_u01_r3_network.client[18] 	hdistance[18] 	2.8917081260365
scalar tree_4_3_u01_r3_network.client[18] 	downloads[18] 	12060
scalar tree_4_3_u01_r3_network.client[18] 	avg_time[18] 	0.00452596828
scalar tree_4_3_u01_r3_network.client[19] 	hdistance[19] 	2.9364709795443
scalar tree_4_3_u01_r3_network.client[19] 	downloads[19] 	12026
scalar tree_4_3_u01_r3_network.client[19] 	avg_time[19] 	0.004605850994
scalar tree_4_3_u01_r3_network.client[20] 	hdistance[20] 	2.9132832080201
scalar tree_4_3_u01_r3_network.client[20] 	downloads[20] 	11970
scalar tree_4_3_u01_r3_network.client[20] 	avg_time[20] 	0.004565859689
scalar tree_4_3_u01_r3_network.client[21] 	hdistance[21] 	2.9251899473992
scalar tree_4_3_u01_r3_network.client[21] 	downloads[21] 	11977
scalar tree_4_3_u01_r3_network.client[21] 	avg_time[21] 	0.004586204447
scalar tree_4_3_u01_r3_network.client[22] 	hdistance[22] 	2.8727701110737
scalar tree_4_3_u01_r3_network.client[22] 	downloads[22] 	11884
scalar tree_4_3_u01_r3_network.client[22] 	avg_time[22] 	0.004536234339
scalar tree_4_3_u01_r3_network.client[23] 	hdistance[23] 	2.8935746305828
scalar tree_4_3_u01_r3_network.client[23] 	downloads[23] 	12046
scalar tree_4_3_u01_r3_network.client[23] 	avg_time[23] 	0.00456538443
scalar tree_4_3_u01_r3_network.client[24] 	hdistance[24] 	2.7956774729842
scalar tree_4_3_u01_r3_network.client[24] 	downloads[24] 	12030
scalar tree_4_3_u01_r3_network.client[24] 	avg_time[24] 	0.004380213143
scalar tree_4_3_u01_r3_network.client[25] 	hdistance[25] 	2.832360786929
scalar tree_4_3_u01_r3_network.client[25] 	downloads[25] 	11996
scalar tree_4_3_u01_r3_network.client[25] 	avg_time[25] 	0.004440143748
scalar tree_4_3_u01_r3_network.client[26] 	hdistance[26] 	2.9126335113485
scalar tree_4_3_u01_r3_network.client[26] 	downloads[26] 	11984
scalar tree_4_3_u01_r3_network.client[26] 	avg_time[26] 	0.004605804748
scalar tree_4_3_u01_r3_network.client[27] 	hdistance[27] 	2.9014461255538
scalar tree_4_3_u01_r3_network.client[27] 	downloads[27] 	11963
scalar tree_4_3_u01_r3_network.client[27] 	avg_time[27] 	0.004585468874
scalar tree_4_3_u01_r3_network.client[28] 	hdistance[28] 	2.9045134575569
scalar tree_4_3_u01_r3_network.client[28] 	downloads[28] 	12075
scalar tree_4_3_u01_r3_network.client[28] 	avg_time[28] 	0.004590276668
scalar tree_4_3_u01_r3_network.client[29] 	hdistance[29] 	2.8981269599119
scalar tree_4_3_u01_r3_network.client[29] 	downloads[29] 	11799
scalar tree_4_3_u01_r3_network.client[29] 	avg_time[29] 	0.004579367529
scalar tree_4_3_u01_r3_network.client[30] 	hdistance[30] 	2.8911479250335
scalar tree_4_3_u01_r3_network.client[30] 	downloads[30] 	11952
scalar tree_4_3_u01_r3_network.client[30] 	avg_time[30] 	0.004563225089
scalar tree_4_3_u01_r3_network.client[31] 	hdistance[31] 	2.9296628467032
scalar tree_4_3_u01_r3_network.client[31] 	downloads[31] 	12042
scalar tree_4_3_u01_r3_network.client[31] 	avg_time[31] 	0.004599232997
scalar tree_4_3_u01_r3_network.client[32] 	hdistance[32] 	2.909317389138
scalar tree_4_3_u01_r3_network.client[32] 	downloads[32] 	12042
scalar tree_4_3_u01_r3_network.client[32] 	avg_time[32] 	0.004579423276
scalar tree_4_3_u01_r3_network.client[33] 	hdistance[33] 	2.9244205576083
scalar tree_4_3_u01_r3_network.client[33] 	downloads[33] 	11908
scalar tree_4_3_u01_r3_network.client[33] 	avg_time[33] 	0.004585149881
scalar tree_4_3_u01_r3_network.client[34] 	hdistance[34] 	2.8930923830434
scalar tree_4_3_u01_r3_network.client[34] 	downloads[34] 	11842
scalar tree_4_3_u01_r3_network.client[34] 	avg_time[34] 	0.004626073716
scalar tree_4_3_u01_r3_network.client[35] 	hdistance[35] 	2.9088806278397
scalar tree_4_3_u01_r3_network.client[35] 	downloads[35] 	12105
scalar tree_4_3_u01_r3_network.client[35] 	avg_time[35] 	0.004645343733
scalar tree_4_3_u01_r3_network.client[36] 	hdistance[36] 	2.8875651526433
scalar tree_4_3_u01_r3_network.client[36] 	downloads[36] 	12087
scalar tree_4_3_u01_r3_network.client[36] 	avg_time[36] 	0.004615534323
scalar tree_4_3_u01_r3_network.client[37] 	hdistance[37] 	2.9061842658814
scalar tree_4_3_u01_r3_network.client[37] 	downloads[37] 	11885
scalar tree_4_3_u01_r3_network.client[37] 	avg_time[37] 	0.004550607068
scalar tree_4_3_u01_r3_network.client[38] 	hdistance[38] 	2.9303984259715
scalar tree_4_3_u01_r3_network.client[38] 	downloads[38] 	12198
scalar tree_4_3_u01_r3_network.client[38] 	avg_time[38] 	0.004591561655
scalar tree_4_3_u01_r3_network.client[39] 	hdistance[39] 	2.8989813957404
scalar tree_4_3_u01_r3_network.client[39] 	downloads[39] 	11879
scalar tree_4_3_u01_r3_network.client[39] 	avg_time[39] 	0.004561477246
