version 2
run General-106-20160820-08:43:35-856
attr a 0.9
attr cd lcd
attr configname General
attr cr lru
attr datetime 20160820-08:43:35
attr experiment General
attr fsize 1
attr inifile hw5115/scenario_A/SPR-LCD.ini
attr iterationvars "$name=tree_4_3, $un=05, $rep=7, $cd=lcd, $cr=lru, $fsize=1, $a=0.9, $sl=spr, $ttl=1000, $variance=0.05"
attr iterationvars2 "$name=tree_4_3, $un=05, $rep=7, $cd=lcd, $cr=lru, $fsize=1, $a=0.9, $sl=spr, $ttl=1000, $variance=0.05, $repetition=0"
attr measurement "$name=tree_4_3, $un=05, $rep=7, $cd=lcd, $cr=lru, $fsize=1, $a=0.9, $sl=spr, $ttl=1000, $variance=0.05"
attr name tree_4_3
attr network networks.${name}_u${un}_r${rep}_network
attr processid 856
attr rep 7
attr repetition 0
attr replication #0
attr resultdir results
attr runnumber 106
attr seedset 7
attr sl spr
attr ttl 1000
attr un 05
attr variance 0.05

scalar . 	a 	0.9
scalar . 	fsize 	1
scalar . 	rep 	7
scalar . 	ttl 	1000
scalar . 	un 	05
scalar . 	variance 	0.05
scalar tree_4_3_u05_r7_network.content_distribution 	repo-0 	0
scalar tree_4_3_u05_r7_network.content_distribution 	client-0 	13
scalar tree_4_3_u05_r7_network.content_distribution 	client-1 	14
scalar tree_4_3_u05_r7_network.content_distribution 	client-2 	15
scalar tree_4_3_u05_r7_network.content_distribution 	client-3 	16
scalar tree_4_3_u05_r7_network.content_distribution 	client-4 	17
scalar tree_4_3_u05_r7_network.content_distribution 	client-5 	18
scalar tree_4_3_u05_r7_network.content_distribution 	client-6 	19
scalar tree_4_3_u05_r7_network.content_distribution 	client-7 	20
scalar tree_4_3_u05_r7_network.content_distribution 	client-8 	21
scalar tree_4_3_u05_r7_network.content_distribution 	client-9 	22
scalar tree_4_3_u05_r7_network.content_distribution 	client-10 	23
scalar tree_4_3_u05_r7_network.content_distribution 	client-11 	24
scalar tree_4_3_u05_r7_network.content_distribution 	client-12 	25
scalar tree_4_3_u05_r7_network.content_distribution 	client-13 	26
scalar tree_4_3_u05_r7_network.content_distribution 	client-14 	27
scalar tree_4_3_u05_r7_network.content_distribution 	client-15 	28
scalar tree_4_3_u05_r7_network.content_distribution 	client-16 	29
scalar tree_4_3_u05_r7_network.content_distribution 	client-17 	30
scalar tree_4_3_u05_r7_network.content_distribution 	client-18 	31
scalar tree_4_3_u05_r7_network.content_distribution 	client-19 	32
scalar tree_4_3_u05_r7_network.content_distribution 	client-20 	33
scalar tree_4_3_u05_r7_network.content_distribution 	client-21 	34
scalar tree_4_3_u05_r7_network.content_distribution 	client-22 	35
scalar tree_4_3_u05_r7_network.content_distribution 	client-23 	36
scalar tree_4_3_u05_r7_network.content_distribution 	client-24 	37
scalar tree_4_3_u05_r7_network.content_distribution 	client-25 	38
scalar tree_4_3_u05_r7_network.content_distribution 	client-26 	39
scalar tree_4_3_u05_r7_network.content_distribution 	repo-0_card 	100000
scalar tree_4_3_u05_r7_network.content_distribution 	repo-0_price 	0
scalar tree_4_3_u05_r7_network.statistics 	stabilization_time 	2179.4
scalar tree_4_3_u05_r7_network.statistics 	p_hit 	0.18825142555565
scalar tree_4_3_u05_r7_network.statistics 	interests 	25488.75
scalar tree_4_3_u05_r7_network.statistics 	data 	17376.925
scalar tree_4_3_u05_r7_network.statistics 	hdistance 	2.8339956928811
scalar tree_4_3_u05_r7_network.statistics 	avg_time 	0.004284448287
scalar tree_4_3_u05_r7_network.statistics 	downloads 	324470
scalar tree_4_3_u05_r7_network.statistics 	total_cost 	0
scalar tree_4_3_u05_r7_network.statistics 	total_replicas 	100000
scalar tree_4_3_u05_r7_network.statistics 	inner_hit 	0.30826270533485
scalar tree_4_3_u05_r7_network.node[0].core_layer 	interests[0] 	226628
scalar tree_4_3_u05_r7_network.node[0].core_layer 	repo_load[0] 	224448
scalar tree_4_3_u05_r7_network.node[0].core_layer 	data[0] 	0
scalar tree_4_3_u05_r7_network.node[0].core_layer 	repo_int[0] 	224448
scalar tree_4_3_u05_r7_network.node[0].content_store 	p_hit[0] 	0.0096192879961876
scalar tree_4_3_u05_r7_network.node[0].content_store 	hits[0] 	2180
scalar tree_4_3_u05_r7_network.node[0].content_store 	misses[0] 	224448
scalar tree_4_3_u05_r7_network.node[0].content_store 	decision_yes[0] 	224448
scalar tree_4_3_u05_r7_network.node[0].content_store 	decision_no[0] 	0
scalar tree_4_3_u05_r7_network.node[0].content_store 	decision_ratio[0] 	1
scalar tree_4_3_u05_r7_network.node[1].core_layer 	interests[1] 	110769
scalar tree_4_3_u05_r7_network.node[1].core_layer 	data[1] 	108700
scalar tree_4_3_u05_r7_network.node[1].content_store 	p_hit[1] 	0.018660455542616
scalar tree_4_3_u05_r7_network.node[1].content_store 	hits[1] 	2067
scalar tree_4_3_u05_r7_network.node[1].content_store 	misses[1] 	108702
scalar tree_4_3_u05_r7_network.node[1].content_store 	decision_yes[1] 	1025
scalar tree_4_3_u05_r7_network.node[1].content_store 	decision_no[1] 	107675
scalar tree_4_3_u05_r7_network.node[1].content_store 	decision_ratio[1] 	0.0094296228150874
scalar tree_4_3_u05_r7_network.node[2].core_layer 	interests[2] 	76845
scalar tree_4_3_u05_r7_network.node[2].core_layer 	data[2] 	75629
scalar tree_4_3_u05_r7_network.node[2].content_store 	p_hit[2] 	0.015811048213937
scalar tree_4_3_u05_r7_network.node[2].content_store 	hits[2] 	1215
scalar tree_4_3_u05_r7_network.node[2].content_store 	misses[2] 	75630
scalar tree_4_3_u05_r7_network.node[2].content_store 	decision_yes[2] 	743
scalar tree_4_3_u05_r7_network.node[2].content_store 	decision_no[2] 	74886
scalar tree_4_3_u05_r7_network.node[2].content_store 	decision_ratio[2] 	0.0098242737574211
scalar tree_4_3_u05_r7_network.node[3].core_layer 	interests[3] 	42827
scalar tree_4_3_u05_r7_network.node[3].core_layer 	data[3] 	42298
scalar tree_4_3_u05_r7_network.node[3].content_store 	p_hit[3] 	0.012352020921381
scalar tree_4_3_u05_r7_network.node[3].content_store 	hits[3] 	529
scalar tree_4_3_u05_r7_network.node[3].content_store 	misses[3] 	42298
scalar tree_4_3_u05_r7_network.node[3].content_store 	decision_yes[3] 	412
scalar tree_4_3_u05_r7_network.node[3].content_store 	decision_no[3] 	41886
scalar tree_4_3_u05_r7_network.node[3].content_store 	decision_ratio[3] 	0.0097404132583101
scalar tree_4_3_u05_r7_network.node[4].core_layer 	interests[4] 	35550
scalar tree_4_3_u05_r7_network.node[4].core_layer 	data[4] 	34360
scalar tree_4_3_u05_r7_network.node[4].content_store 	p_hit[4] 	0.033389592123769
scalar tree_4_3_u05_r7_network.node[4].content_store 	hits[4] 	1187
scalar tree_4_3_u05_r7_network.node[4].content_store 	misses[4] 	34363
scalar tree_4_3_u05_r7_network.node[4].content_store 	decision_yes[4] 	604
scalar tree_4_3_u05_r7_network.node[4].content_store 	decision_no[4] 	33756
scalar tree_4_3_u05_r7_network.node[4].content_store 	decision_ratio[4] 	0.017578579743888
scalar tree_4_3_u05_r7_network.node[5].core_layer 	interests[5] 	35393
scalar tree_4_3_u05_r7_network.node[5].core_layer 	data[5] 	34181
scalar tree_4_3_u05_r7_network.node[5].content_store 	p_hit[5] 	0.0342440595598
scalar tree_4_3_u05_r7_network.node[5].content_store 	hits[5] 	1212
scalar tree_4_3_u05_r7_network.node[5].content_store 	misses[5] 	34181
scalar tree_4_3_u05_r7_network.node[5].content_store 	decision_yes[5] 	615
scalar tree_4_3_u05_r7_network.node[5].content_store 	decision_no[5] 	33566
scalar tree_4_3_u05_r7_network.node[5].content_store 	decision_ratio[5] 	0.017992451946988
scalar tree_4_3_u05_r7_network.node[6].core_layer 	interests[6] 	8636
scalar tree_4_3_u05_r7_network.node[6].core_layer 	data[6] 	8366
scalar tree_4_3_u05_r7_network.node[6].content_store 	p_hit[6] 	0.031264474293654
scalar tree_4_3_u05_r7_network.node[6].content_store 	hits[6] 	270
scalar tree_4_3_u05_r7_network.node[6].content_store 	misses[6] 	8366
scalar tree_4_3_u05_r7_network.node[6].content_store 	decision_yes[6] 	238
scalar tree_4_3_u05_r7_network.node[6].content_store 	decision_no[6] 	8128
scalar tree_4_3_u05_r7_network.node[6].content_store 	decision_ratio[6] 	0.028448481950753
scalar tree_4_3_u05_r7_network.node[7].core_layer 	interests[7] 	35060
scalar tree_4_3_u05_r7_network.node[7].core_layer 	data[7] 	33861
scalar tree_4_3_u05_r7_network.node[7].content_store 	p_hit[7] 	0.034141471762693
scalar tree_4_3_u05_r7_network.node[7].content_store 	hits[7] 	1197
scalar tree_4_3_u05_r7_network.node[7].content_store 	misses[7] 	33863
scalar tree_4_3_u05_r7_network.node[7].content_store 	decision_yes[7] 	610
scalar tree_4_3_u05_r7_network.node[7].content_store 	decision_no[7] 	33251
scalar tree_4_3_u05_r7_network.node[7].content_store 	decision_ratio[7] 	0.018014825315259
scalar tree_4_3_u05_r7_network.node[8].core_layer 	interests[8] 	35278
scalar tree_4_3_u05_r7_network.node[8].core_layer 	data[8] 	34181
scalar tree_4_3_u05_r7_network.node[8].content_store 	p_hit[8] 	0.031095867112648
scalar tree_4_3_u05_r7_network.node[8].content_store 	hits[8] 	1097
scalar tree_4_3_u05_r7_network.node[8].content_store 	misses[8] 	34181
scalar tree_4_3_u05_r7_network.node[8].content_store 	decision_yes[8] 	492
scalar tree_4_3_u05_r7_network.node[8].content_store 	decision_no[8] 	33689
scalar tree_4_3_u05_r7_network.node[8].content_store 	decision_ratio[8] 	0.01439396155759
scalar tree_4_3_u05_r7_network.node[9].core_layer 	interests[9] 	8864
scalar tree_4_3_u05_r7_network.node[9].core_layer 	data[9] 	8603
scalar tree_4_3_u05_r7_network.node[9].content_store 	p_hit[9] 	0.029444945848375
scalar tree_4_3_u05_r7_network.node[9].content_store 	hits[9] 	261
scalar tree_4_3_u05_r7_network.node[9].content_store 	misses[9] 	8603
scalar tree_4_3_u05_r7_network.node[9].content_store 	decision_yes[9] 	225
scalar tree_4_3_u05_r7_network.node[9].content_store 	decision_no[9] 	8378
scalar tree_4_3_u05_r7_network.node[9].content_store 	decision_ratio[9] 	0.026153667325352
scalar tree_4_3_u05_r7_network.node[10].core_layer 	interests[10] 	35326
scalar tree_4_3_u05_r7_network.node[10].core_layer 	data[10] 	34319
scalar tree_4_3_u05_r7_network.node[10].content_store 	p_hit[10] 	0.028505916322256
scalar tree_4_3_u05_r7_network.node[10].content_store 	hits[10] 	1007
scalar tree_4_3_u05_r7_network.node[10].content_store 	misses[10] 	34319
scalar tree_4_3_u05_r7_network.node[10].content_store 	decision_yes[10] 	359
scalar tree_4_3_u05_r7_network.node[10].content_store 	decision_no[10] 	33960
scalar tree_4_3_u05_r7_network.node[10].content_store 	decision_ratio[10] 	0.010460677758676
scalar tree_4_3_u05_r7_network.node[11].core_layer 	interests[11] 	35170
scalar tree_4_3_u05_r7_network.node[11].core_layer 	data[11] 	34061
scalar tree_4_3_u05_r7_network.node[11].content_store 	p_hit[11] 	0.031532556155815
scalar tree_4_3_u05_r7_network.node[11].content_store 	hits[11] 	1109
scalar tree_4_3_u05_r7_network.node[11].content_store 	misses[11] 	34061
scalar tree_4_3_u05_r7_network.node[11].content_store 	decision_yes[11] 	498
scalar tree_4_3_u05_r7_network.node[11].content_store 	decision_no[11] 	33563
scalar tree_4_3_u05_r7_network.node[11].content_store 	decision_ratio[11] 	0.014620827339186
scalar tree_4_3_u05_r7_network.node[12].core_layer 	interests[12] 	8732
scalar tree_4_3_u05_r7_network.node[12].core_layer 	data[12] 	8509
scalar tree_4_3_u05_r7_network.node[12].content_store 	p_hit[12] 	0.025538250114521
scalar tree_4_3_u05_r7_network.node[12].content_store 	hits[12] 	223
scalar tree_4_3_u05_r7_network.node[12].content_store 	misses[12] 	8509
scalar tree_4_3_u05_r7_network.node[12].content_store 	decision_yes[12] 	170
scalar tree_4_3_u05_r7_network.node[12].content_store 	decision_no[12] 	8339
scalar tree_4_3_u05_r7_network.node[12].content_store 	decision_ratio[12] 	0.019978845927841
scalar tree_4_3_u05_r7_network.node[13].core_layer 	interests[13] 	12153
scalar tree_4_3_u05_r7_network.node[13].core_layer 	data[13] 	8944
scalar tree_4_3_u05_r7_network.node[13].content_store 	p_hit[13] 	0.26405002879947
scalar tree_4_3_u05_r7_network.node[13].content_store 	hits[13] 	3209
scalar tree_4_3_u05_r7_network.node[13].content_store 	misses[13] 	8944
scalar tree_4_3_u05_r7_network.node[13].content_store 	decision_yes[13] 	302
scalar tree_4_3_u05_r7_network.node[13].content_store 	decision_no[13] 	8642
scalar tree_4_3_u05_r7_network.node[13].content_store 	decision_ratio[13] 	0.033765652951699
scalar tree_4_3_u05_r7_network.node[14].core_layer 	interests[14] 	12025
scalar tree_4_3_u05_r7_network.node[14].core_layer 	data[14] 	8719
scalar tree_4_3_u05_r7_network.node[14].content_store 	p_hit[14] 	0.27476091476091
scalar tree_4_3_u05_r7_network.node[14].content_store 	hits[14] 	3304
scalar tree_4_3_u05_r7_network.node[14].content_store 	misses[14] 	8721
scalar tree_4_3_u05_r7_network.node[14].content_store 	decision_yes[14] 	309
scalar tree_4_3_u05_r7_network.node[14].content_store 	decision_no[14] 	8410
scalar tree_4_3_u05_r7_network.node[14].content_store 	decision_ratio[14] 	0.035439844018809
scalar tree_4_3_u05_r7_network.node[15].core_layer 	interests[15] 	12101
scalar tree_4_3_u05_r7_network.node[15].core_layer 	data[15] 	8988
scalar tree_4_3_u05_r7_network.node[15].content_store 	p_hit[15] 	0.25716882902239
scalar tree_4_3_u05_r7_network.node[15].content_store 	hits[15] 	3112
scalar tree_4_3_u05_r7_network.node[15].content_store 	misses[15] 	8989
scalar tree_4_3_u05_r7_network.node[15].content_store 	decision_yes[15] 	294
scalar tree_4_3_u05_r7_network.node[15].content_store 	decision_no[15] 	8694
scalar tree_4_3_u05_r7_network.node[15].content_store 	decision_ratio[15] 	0.032710280373832
scalar tree_4_3_u05_r7_network.node[16].core_layer 	interests[16] 	11845
scalar tree_4_3_u05_r7_network.node[16].core_layer 	data[16] 	8745
scalar tree_4_3_u05_r7_network.node[16].content_store 	p_hit[16] 	0.26171380329253
scalar tree_4_3_u05_r7_network.node[16].content_store 	hits[16] 	3100
scalar tree_4_3_u05_r7_network.node[16].content_store 	misses[16] 	8745
scalar tree_4_3_u05_r7_network.node[16].content_store 	decision_yes[16] 	293
scalar tree_4_3_u05_r7_network.node[16].content_store 	decision_no[16] 	8452
scalar tree_4_3_u05_r7_network.node[16].content_store 	decision_ratio[16] 	0.033504859919954
scalar tree_4_3_u05_r7_network.node[17].core_layer 	interests[17] 	12216
scalar tree_4_3_u05_r7_network.node[17].core_layer 	data[17] 	8998
scalar tree_4_3_u05_r7_network.node[17].content_store 	p_hit[17] 	0.26342501637197
scalar tree_4_3_u05_r7_network.node[17].content_store 	hits[17] 	3218
scalar tree_4_3_u05_r7_network.node[17].content_store 	misses[17] 	8998
scalar tree_4_3_u05_r7_network.node[17].content_store 	decision_yes[17] 	309
scalar tree_4_3_u05_r7_network.node[17].content_store 	decision_no[17] 	8689
scalar tree_4_3_u05_r7_network.node[17].content_store 	decision_ratio[17] 	0.034340964658813
scalar tree_4_3_u05_r7_network.node[18].core_layer 	interests[18] 	11982
scalar tree_4_3_u05_r7_network.node[18].core_layer 	data[18] 	8778
scalar tree_4_3_u05_r7_network.node[18].content_store 	p_hit[18] 	0.26740110165248
scalar tree_4_3_u05_r7_network.node[18].content_store 	hits[18] 	3204
scalar tree_4_3_u05_r7_network.node[18].content_store 	misses[18] 	8778
scalar tree_4_3_u05_r7_network.node[18].content_store 	decision_yes[18] 	289
scalar tree_4_3_u05_r7_network.node[18].content_store 	decision_no[18] 	8489
scalar tree_4_3_u05_r7_network.node[18].content_store 	decision_ratio[18] 	0.032923217133743
scalar tree_4_3_u05_r7_network.node[19].core_layer 	interests[19] 	12052
scalar tree_4_3_u05_r7_network.node[19].core_layer 	data[19] 	8898
scalar tree_4_3_u05_r7_network.node[19].content_store 	p_hit[19] 	0.26169930302025
scalar tree_4_3_u05_r7_network.node[19].content_store 	hits[19] 	3154
scalar tree_4_3_u05_r7_network.node[19].content_store 	misses[19] 	8898
scalar tree_4_3_u05_r7_network.node[19].content_store 	decision_yes[19] 	282
scalar tree_4_3_u05_r7_network.node[19].content_store 	decision_no[19] 	8616
scalar tree_4_3_u05_r7_network.node[19].content_store 	decision_ratio[19] 	0.031692515171949
scalar tree_4_3_u05_r7_network.node[20].core_layer 	interests[20] 	12123
scalar tree_4_3_u05_r7_network.node[20].core_layer 	data[20] 	8872
scalar tree_4_3_u05_r7_network.node[20].content_store 	p_hit[20] 	0.26816794522808
scalar tree_4_3_u05_r7_network.node[20].content_store 	hits[20] 	3251
scalar tree_4_3_u05_r7_network.node[20].content_store 	misses[20] 	8872
scalar tree_4_3_u05_r7_network.node[20].content_store 	decision_yes[20] 	321
scalar tree_4_3_u05_r7_network.node[20].content_store 	decision_no[20] 	8551
scalar tree_4_3_u05_r7_network.node[20].content_store 	decision_ratio[20] 	0.036181244364292
scalar tree_4_3_u05_r7_network.node[21].core_layer 	interests[21] 	11897
scalar tree_4_3_u05_r7_network.node[21].core_layer 	data[21] 	8636
scalar tree_4_3_u05_r7_network.node[21].content_store 	p_hit[21] 	0.27410271497016
scalar tree_4_3_u05_r7_network.node[21].content_store 	hits[21] 	3261
scalar tree_4_3_u05_r7_network.node[21].content_store 	misses[21] 	8636
scalar tree_4_3_u05_r7_network.node[21].content_store 	decision_yes[21] 	270
scalar tree_4_3_u05_r7_network.node[21].content_store 	decision_no[21] 	8366
scalar tree_4_3_u05_r7_network.node[21].content_store 	decision_ratio[21] 	0.031264474293654
scalar tree_4_3_u05_r7_network.node[22].core_layer 	interests[22] 	11851
scalar tree_4_3_u05_r7_network.node[22].core_layer 	data[22] 	8719
scalar tree_4_3_u05_r7_network.node[22].content_store 	p_hit[22] 	0.26428149523247
scalar tree_4_3_u05_r7_network.node[22].content_store 	hits[22] 	3132
scalar tree_4_3_u05_r7_network.node[22].content_store 	misses[22] 	8719
scalar tree_4_3_u05_r7_network.node[22].content_store 	decision_yes[22] 	286
scalar tree_4_3_u05_r7_network.node[22].content_store 	decision_no[22] 	8433
scalar tree_4_3_u05_r7_network.node[22].content_store 	decision_ratio[22] 	0.032801926826471
scalar tree_4_3_u05_r7_network.node[23].core_layer 	interests[23] 	11905
scalar tree_4_3_u05_r7_network.node[23].core_layer 	data[23] 	8778
scalar tree_4_3_u05_r7_network.node[23].content_store 	p_hit[23] 	0.26257874842503
scalar tree_4_3_u05_r7_network.node[23].content_store 	hits[23] 	3126
scalar tree_4_3_u05_r7_network.node[23].content_store 	misses[23] 	8779
scalar tree_4_3_u05_r7_network.node[23].content_store 	decision_yes[23] 	305
scalar tree_4_3_u05_r7_network.node[23].content_store 	decision_no[23] 	8473
scalar tree_4_3_u05_r7_network.node[23].content_store 	decision_ratio[23] 	0.034745955798587
scalar tree_4_3_u05_r7_network.node[24].core_layer 	interests[24] 	12092
scalar tree_4_3_u05_r7_network.node[24].core_layer 	data[24] 	8842
scalar tree_4_3_u05_r7_network.node[24].content_store 	p_hit[24] 	0.26877274230896
scalar tree_4_3_u05_r7_network.node[24].content_store 	hits[24] 	3250
scalar tree_4_3_u05_r7_network.node[24].content_store 	misses[24] 	8842
scalar tree_4_3_u05_r7_network.node[24].content_store 	decision_yes[24] 	297
scalar tree_4_3_u05_r7_network.node[24].content_store 	decision_no[24] 	8545
scalar tree_4_3_u05_r7_network.node[24].content_store 	decision_ratio[24] 	0.033589685591495
scalar tree_4_3_u05_r7_network.node[25].core_layer 	interests[25] 	12003
scalar tree_4_3_u05_r7_network.node[25].core_layer 	data[25] 	8832
scalar tree_4_3_u05_r7_network.node[25].content_store 	p_hit[25] 	0.2641839540115
scalar tree_4_3_u05_r7_network.node[25].content_store 	hits[25] 	3171
scalar tree_4_3_u05_r7_network.node[25].content_store 	misses[25] 	8832
scalar tree_4_3_u05_r7_network.node[25].content_store 	decision_yes[25] 	275
scalar tree_4_3_u05_r7_network.node[25].content_store 	decision_no[25] 	8557
scalar tree_4_3_u05_r7_network.node[25].content_store 	decision_ratio[25] 	0.031136775362319
scalar tree_4_3_u05_r7_network.node[26].core_layer 	interests[26] 	12048
scalar tree_4_3_u05_r7_network.node[26].core_layer 	data[26] 	8788
scalar tree_4_3_u05_r7_network.node[26].content_store 	p_hit[26] 	0.27066733067729
scalar tree_4_3_u05_r7_network.node[26].content_store 	hits[26] 	3261
scalar tree_4_3_u05_r7_network.node[26].content_store 	misses[26] 	8787
scalar tree_4_3_u05_r7_network.node[26].content_store 	decision_yes[26] 	266
scalar tree_4_3_u05_r7_network.node[26].content_store 	decision_no[26] 	8522
scalar tree_4_3_u05_r7_network.node[26].content_store 	decision_ratio[26] 	0.030268548020027
scalar tree_4_3_u05_r7_network.node[27].core_layer 	interests[27] 	12146
scalar tree_4_3_u05_r7_network.node[27].core_layer 	data[27] 	8947
scalar tree_4_3_u05_r7_network.node[27].content_store 	p_hit[27] 	0.26346122180142
scalar tree_4_3_u05_r7_network.node[27].content_store 	hits[27] 	3200
scalar tree_4_3_u05_r7_network.node[27].content_store 	misses[27] 	8946
scalar tree_4_3_u05_r7_network.node[27].content_store 	decision_yes[27] 	285
scalar tree_4_3_u05_r7_network.node[27].content_store 	decision_no[27] 	8662
scalar tree_4_3_u05_r7_network.node[27].content_store 	decision_ratio[27] 	0.031854252822175
scalar tree_4_3_u05_r7_network.node[28].core_layer 	interests[28] 	11946
scalar tree_4_3_u05_r7_network.node[28].core_layer 	data[28] 	8720
scalar tree_4_3_u05_r7_network.node[28].content_store 	p_hit[28] 	0.27004855181651
scalar tree_4_3_u05_r7_network.node[28].content_store 	hits[28] 	3226
scalar tree_4_3_u05_r7_network.node[28].content_store 	misses[28] 	8720
scalar tree_4_3_u05_r7_network.node[28].content_store 	decision_yes[28] 	309
scalar tree_4_3_u05_r7_network.node[28].content_store 	decision_no[28] 	8411
scalar tree_4_3_u05_r7_network.node[28].content_store 	decision_ratio[28] 	0.035435779816514
scalar tree_4_3_u05_r7_network.node[29].core_layer 	interests[29] 	12017
scalar tree_4_3_u05_r7_network.node[29].core_layer 	data[29] 	8711
scalar tree_4_3_u05_r7_network.node[29].content_store 	p_hit[29] 	0.27511026046434
scalar tree_4_3_u05_r7_network.node[29].content_store 	hits[29] 	3306
scalar tree_4_3_u05_r7_network.node[29].content_store 	misses[29] 	8711
scalar tree_4_3_u05_r7_network.node[29].content_store 	decision_yes[29] 	271
scalar tree_4_3_u05_r7_network.node[29].content_store 	decision_no[29] 	8440
scalar tree_4_3_u05_r7_network.node[29].content_store 	decision_ratio[29] 	0.031110090689932
scalar tree_4_3_u05_r7_network.node[30].core_layer 	interests[30] 	11961
scalar tree_4_3_u05_r7_network.node[30].core_layer 	data[30] 	8864
scalar tree_4_3_u05_r7_network.node[30].content_store 	p_hit[30] 	0.25892483906028
scalar tree_4_3_u05_r7_network.node[30].content_store 	hits[30] 	3097
scalar tree_4_3_u05_r7_network.node[30].content_store 	misses[30] 	8864
scalar tree_4_3_u05_r7_network.node[30].content_store 	decision_yes[30] 	261
scalar tree_4_3_u05_r7_network.node[30].content_store 	decision_no[30] 	8603
scalar tree_4_3_u05_r7_network.node[30].content_store 	decision_ratio[30] 	0.029444945848375
scalar tree_4_3_u05_r7_network.node[31].core_layer 	interests[31] 	12072
scalar tree_4_3_u05_r7_network.node[31].core_layer 	data[31] 	8858
scalar tree_4_3_u05_r7_network.node[31].content_store 	p_hit[31] 	0.26615308151093
scalar tree_4_3_u05_r7_network.node[31].content_store 	hits[31] 	3213
scalar tree_4_3_u05_r7_network.node[31].content_store 	misses[31] 	8859
scalar tree_4_3_u05_r7_network.node[31].content_store 	decision_yes[31] 	254
scalar tree_4_3_u05_r7_network.node[31].content_store 	decision_no[31] 	8604
scalar tree_4_3_u05_r7_network.node[31].content_store 	decision_ratio[31] 	0.028674644389253
scalar tree_4_3_u05_r7_network.node[32].core_layer 	interests[32] 	12170
scalar tree_4_3_u05_r7_network.node[32].core_layer 	data[32] 	8911
scalar tree_4_3_u05_r7_network.node[32].content_store 	p_hit[32] 	0.26778964667214
scalar tree_4_3_u05_r7_network.node[32].content_store 	hits[32] 	3259
scalar tree_4_3_u05_r7_network.node[32].content_store 	misses[32] 	8911
scalar tree_4_3_u05_r7_network.node[32].content_store 	decision_yes[32] 	253
scalar tree_4_3_u05_r7_network.node[32].content_store 	decision_no[32] 	8658
scalar tree_4_3_u05_r7_network.node[32].content_store 	decision_ratio[32] 	0.028391875210414
scalar tree_4_3_u05_r7_network.node[33].core_layer 	interests[33] 	11918
scalar tree_4_3_u05_r7_network.node[33].core_layer 	data[33] 	8709
scalar tree_4_3_u05_r7_network.node[33].content_store 	p_hit[33] 	0.26925658667562
scalar tree_4_3_u05_r7_network.node[33].content_store 	hits[33] 	3209
scalar tree_4_3_u05_r7_network.node[33].content_store 	misses[33] 	8709
scalar tree_4_3_u05_r7_network.node[33].content_store 	decision_yes[33] 	246
scalar tree_4_3_u05_r7_network.node[33].content_store 	decision_no[33] 	8463
scalar tree_4_3_u05_r7_network.node[33].content_store 	decision_ratio[33] 	0.028246641405443
scalar tree_4_3_u05_r7_network.node[34].core_layer 	interests[34] 	11896
scalar tree_4_3_u05_r7_network.node[34].core_layer 	data[34] 	8732
scalar tree_4_3_u05_r7_network.node[34].content_store 	p_hit[34] 	0.26597175521184
scalar tree_4_3_u05_r7_network.node[34].content_store 	hits[34] 	3164
scalar tree_4_3_u05_r7_network.node[34].content_store 	misses[34] 	8732
scalar tree_4_3_u05_r7_network.node[34].content_store 	decision_yes[34] 	276
scalar tree_4_3_u05_r7_network.node[34].content_store 	decision_no[34] 	8456
scalar tree_4_3_u05_r7_network.node[34].content_store 	decision_ratio[34] 	0.031607879065506
scalar tree_4_3_u05_r7_network.node[35].core_layer 	interests[35] 	11870
scalar tree_4_3_u05_r7_network.node[35].core_layer 	data[35] 	8804
scalar tree_4_3_u05_r7_network.node[35].content_store 	p_hit[35] 	0.25829823083404
scalar tree_4_3_u05_r7_network.node[35].content_store 	hits[35] 	3066
scalar tree_4_3_u05_r7_network.node[35].content_store 	misses[35] 	8804
scalar tree_4_3_u05_r7_network.node[35].content_store 	decision_yes[35] 	274
scalar tree_4_3_u05_r7_network.node[35].content_store 	decision_no[35] 	8530
scalar tree_4_3_u05_r7_network.node[35].content_store 	decision_ratio[35] 	0.031122217174012
scalar tree_4_3_u05_r7_network.node[36].core_layer 	interests[36] 	11993
scalar tree_4_3_u05_r7_network.node[36].core_layer 	data[36] 	8849
scalar tree_4_3_u05_r7_network.node[36].content_store 	p_hit[36] 	0.26215292253815
scalar tree_4_3_u05_r7_network.node[36].content_store 	hits[36] 	3144
scalar tree_4_3_u05_r7_network.node[36].content_store 	misses[36] 	8849
scalar tree_4_3_u05_r7_network.node[36].content_store 	decision_yes[36] 	260
scalar tree_4_3_u05_r7_network.node[36].content_store 	decision_no[36] 	8589
scalar tree_4_3_u05_r7_network.node[36].content_store 	decision_ratio[36] 	0.029381851056617
scalar tree_4_3_u05_r7_network.node[37].core_layer 	interests[37] 	12057
scalar tree_4_3_u05_r7_network.node[37].core_layer 	data[37] 	8849
scalar tree_4_3_u05_r7_network.node[37].content_store 	p_hit[37] 	0.26615244256449
scalar tree_4_3_u05_r7_network.node[37].content_store 	hits[37] 	3209
scalar tree_4_3_u05_r7_network.node[37].content_store 	misses[37] 	8848
scalar tree_4_3_u05_r7_network.node[37].content_store 	decision_yes[37] 	254
scalar tree_4_3_u05_r7_network.node[37].content_store 	decision_no[37] 	8595
scalar tree_4_3_u05_r7_network.node[37].content_store 	decision_ratio[37] 	0.028703808339925
scalar tree_4_3_u05_r7_network.node[38].core_layer 	interests[38] 	12013
scalar tree_4_3_u05_r7_network.node[38].core_layer 	data[38] 	8786
scalar tree_4_3_u05_r7_network.node[38].content_store 	p_hit[38] 	0.26862565553983
scalar tree_4_3_u05_r7_network.node[38].content_store 	hits[38] 	3227
scalar tree_4_3_u05_r7_network.node[38].content_store 	misses[38] 	8786
scalar tree_4_3_u05_r7_network.node[38].content_store 	decision_yes[38] 	299
scalar tree_4_3_u05_r7_network.node[38].content_store 	decision_no[38] 	8487
scalar tree_4_3_u05_r7_network.node[38].content_store 	decision_ratio[38] 	0.034031413612565
scalar tree_4_3_u05_r7_network.node[39].core_layer 	interests[39] 	12120
scalar tree_4_3_u05_r7_network.node[39].core_layer 	data[39] 	8732
scalar tree_4_3_u05_r7_network.node[39].content_store 	p_hit[39] 	0.27953795379538
scalar tree_4_3_u05_r7_network.node[39].content_store 	hits[39] 	3388
scalar tree_4_3_u05_r7_network.node[39].content_store 	misses[39] 	8732
scalar tree_4_3_u05_r7_network.node[39].content_store 	decision_yes[39] 	223
scalar tree_4_3_u05_r7_network.node[39].content_store 	decision_no[39] 	8509
scalar tree_4_3_u05_r7_network.node[39].content_store 	decision_ratio[39] 	0.025538250114521
scalar tree_4_3_u05_r7_network.client[13] 	hdistance[13] 	2.8373241175019
scalar tree_4_3_u05_r7_network.client[13] 	downloads[13] 	12153
scalar tree_4_3_u05_r7_network.client[13] 	avg_time[13] 	0.004290607256
scalar tree_4_3_u05_r7_network.client[14] 	hdistance[14] 	2.7908175996008
scalar tree_4_3_u05_r7_network.client[14] 	downloads[14] 	12023
scalar tree_4_3_u05_r7_network.client[14] 	avg_time[14] 	0.004221472577
scalar tree_4_3_u05_r7_network.client[15] 	hdistance[15] 	2.8650413223141
scalar tree_4_3_u05_r7_network.client[15] 	downloads[15] 	12100
scalar tree_4_3_u05_r7_network.client[15] 	avg_time[15] 	0.004334313896
scalar tree_4_3_u05_r7_network.client[16] 	hdistance[16] 	2.8476150274377
scalar tree_4_3_u05_r7_network.client[16] 	downloads[16] 	11845
scalar tree_4_3_u05_r7_network.client[16] 	avg_time[16] 	0.004306117791
scalar tree_4_3_u05_r7_network.client[17] 	hdistance[17] 	2.838163064833
scalar tree_4_3_u05_r7_network.client[17] 	downloads[17] 	12216
scalar tree_4_3_u05_r7_network.client[17] 	avg_time[17] 	0.004292400336
scalar tree_4_3_u05_r7_network.client[18] 	hdistance[18] 	2.8250709397429
scalar tree_4_3_u05_r7_network.client[18] 	downloads[18] 	11982
scalar tree_4_3_u05_r7_network.client[18] 	avg_time[18] 	0.004272572555
scalar tree_4_3_u05_r7_network.client[19] 	hdistance[19] 	2.8538001991371
scalar tree_4_3_u05_r7_network.client[19] 	downloads[19] 	12052
scalar tree_4_3_u05_r7_network.client[19] 	avg_time[19] 	0.00431396978
scalar tree_4_3_u05_r7_network.client[20] 	hdistance[20] 	2.8156396931453
scalar tree_4_3_u05_r7_network.client[20] 	downloads[20] 	12123
scalar tree_4_3_u05_r7_network.client[20] 	avg_time[20] 	0.00425999862
scalar tree_4_3_u05_r7_network.client[21] 	hdistance[21] 	2.790451374296
scalar tree_4_3_u05_r7_network.client[21] 	downloads[21] 	11897
scalar tree_4_3_u05_r7_network.client[21] 	avg_time[21] 	0.004224591479
scalar tree_4_3_u05_r7_network.client[22] 	hdistance[22] 	2.8362163530504
scalar tree_4_3_u05_r7_network.client[22] 	downloads[22] 	11851
scalar tree_4_3_u05_r7_network.client[22] 	avg_time[22] 	0.00428907608
scalar tree_4_3_u05_r7_network.client[23] 	hdistance[23] 	2.8417338709677
scalar tree_4_3_u05_r7_network.client[23] 	downloads[23] 	11904
scalar tree_4_3_u05_r7_network.client[23] 	avg_time[23] 	0.004297040032
scalar tree_4_3_u05_r7_network.client[24] 	hdistance[24] 	2.8178961296725
scalar tree_4_3_u05_r7_network.client[24] 	downloads[24] 	12092
scalar tree_4_3_u05_r7_network.client[24] 	avg_time[24] 	0.004263476967
scalar tree_4_3_u05_r7_network.client[25] 	hdistance[25] 	2.8463717403982
scalar tree_4_3_u05_r7_network.client[25] 	downloads[25] 	12003
scalar tree_4_3_u05_r7_network.client[25] 	avg_time[25] 	0.004302254758
scalar tree_4_3_u05_r7_network.client[26] 	hdistance[26] 	2.8226408830608
scalar tree_4_3_u05_r7_network.client[26] 	downloads[26] 	12049
scalar tree_4_3_u05_r7_network.client[26] 	avg_time[26] 	0.004267571026
scalar tree_4_3_u05_r7_network.client[27] 	hdistance[27] 	2.8460525232568
scalar tree_4_3_u05_r7_network.client[27] 	downloads[27] 	12147
scalar tree_4_3_u05_r7_network.client[27] 	avg_time[27] 	0.004304104956
scalar tree_4_3_u05_r7_network.client[28] 	hdistance[28] 	2.812405826218
scalar tree_4_3_u05_r7_network.client[28] 	downloads[28] 	11946
scalar tree_4_3_u05_r7_network.client[28] 	avg_time[28] 	0.004252993118
scalar tree_4_3_u05_r7_network.client[29] 	hdistance[29] 	2.8067737372056
scalar tree_4_3_u05_r7_network.client[29] 	downloads[29] 	12017
scalar tree_4_3_u05_r7_network.client[29] 	avg_time[29] 	0.004240156757
scalar tree_4_3_u05_r7_network.client[30] 	hdistance[30] 	2.8553632639411
scalar tree_4_3_u05_r7_network.client[30] 	downloads[30] 	11961
scalar tree_4_3_u05_r7_network.client[30] 	avg_time[30] 	0.004321542035
scalar tree_4_3_u05_r7_network.client[31] 	hdistance[31] 	2.8509651230221
scalar tree_4_3_u05_r7_network.client[31] 	downloads[31] 	12071
scalar tree_4_3_u05_r7_network.client[31] 	avg_time[31] 	0.004304279505
scalar tree_4_3_u05_r7_network.client[32] 	hdistance[32] 	2.8433032046015
scalar tree_4_3_u05_r7_network.client[32] 	downloads[32] 	12170
scalar tree_4_3_u05_r7_network.client[32] 	avg_time[32] 	0.004293834279
scalar tree_4_3_u05_r7_network.client[33] 	hdistance[33] 	2.8406611847625
scalar tree_4_3_u05_r7_network.client[33] 	downloads[33] 	11918
scalar tree_4_3_u05_r7_network.client[33] 	avg_time[33] 	0.004288971678
scalar tree_4_3_u05_r7_network.client[34] 	hdistance[34] 	2.8370880968393
scalar tree_4_3_u05_r7_network.client[34] 	downloads[34] 	11896
scalar tree_4_3_u05_r7_network.client[34] 	avg_time[34] 	0.004290851074
scalar tree_4_3_u05_r7_network.client[35] 	hdistance[35] 	2.8687447346251
scalar tree_4_3_u05_r7_network.client[35] 	downloads[35] 	11870
scalar tree_4_3_u05_r7_network.client[35] 	avg_time[35] 	0.004335127613
scalar tree_4_3_u05_r7_network.client[36] 	hdistance[36] 	2.8582506462103
scalar tree_4_3_u05_r7_network.client[36] 	downloads[36] 	11993
scalar tree_4_3_u05_r7_network.client[36] 	avg_time[36] 	0.004318108238
scalar tree_4_3_u05_r7_network.client[37] 	hdistance[37] 	2.8498921877592
scalar tree_4_3_u05_r7_network.client[37] 	downloads[37] 	12058
scalar tree_4_3_u05_r7_network.client[37] 	avg_time[37] 	0.004302848566
scalar tree_4_3_u05_r7_network.client[38] 	hdistance[38] 	2.8276866727712
scalar tree_4_3_u05_r7_network.client[38] 	downloads[38] 	12013
scalar tree_4_3_u05_r7_network.client[38] 	avg_time[38] 	0.004270703733
scalar tree_4_3_u05_r7_network.client[39] 	hdistance[39] 	2.7919141914191
scalar tree_4_3_u05_r7_network.client[39] 	downloads[39] 	12120
scalar tree_4_3_u05_r7_network.client[39] 	avg_time[39] 	0.004221119069
