version 2
run General-102-20160820-08:37:45-856
attr a 0.9
attr cd lcd
attr configname General
attr cr lru
attr datetime 20160820-08:37:45
attr experiment General
attr fsize 1
attr inifile hw5115/scenario_A/SPR-LCD.ini
attr iterationvars "$name=tree_4_3, $un=05, $rep=3, $cd=lcd, $cr=lru, $fsize=1, $a=0.9, $sl=spr, $ttl=1000, $variance=0.05"
attr iterationvars2 "$name=tree_4_3, $un=05, $rep=3, $cd=lcd, $cr=lru, $fsize=1, $a=0.9, $sl=spr, $ttl=1000, $variance=0.05, $repetition=0"
attr measurement "$name=tree_4_3, $un=05, $rep=3, $cd=lcd, $cr=lru, $fsize=1, $a=0.9, $sl=spr, $ttl=1000, $variance=0.05"
attr name tree_4_3
attr network networks.${name}_u${un}_r${rep}_network
attr processid 856
attr rep 3
attr repetition 0
attr replication #0
attr resultdir results
attr runnumber 102
attr seedset 3
attr sl spr
attr ttl 1000
attr un 05
attr variance 0.05

scalar . 	a 	0.9
scalar . 	fsize 	1
scalar . 	rep 	3
scalar . 	ttl 	1000
scalar . 	un 	05
scalar . 	variance 	0.05
scalar tree_4_3_u05_r3_network.content_distribution 	repo-0 	0
scalar tree_4_3_u05_r3_network.content_distribution 	client-0 	13
scalar tree_4_3_u05_r3_network.content_distribution 	client-1 	14
scalar tree_4_3_u05_r3_network.content_distribution 	client-2 	15
scalar tree_4_3_u05_r3_network.content_distribution 	client-3 	16
scalar tree_4_3_u05_r3_network.content_distribution 	client-4 	17
scalar tree_4_3_u05_r3_network.content_distribution 	client-5 	18
scalar tree_4_3_u05_r3_network.content_distribution 	client-6 	19
scalar tree_4_3_u05_r3_network.content_distribution 	client-7 	20
scalar tree_4_3_u05_r3_network.content_distribution 	client-8 	21
scalar tree_4_3_u05_r3_network.content_distribution 	client-9 	22
scalar tree_4_3_u05_r3_network.content_distribution 	client-10 	23
scalar tree_4_3_u05_r3_network.content_distribution 	client-11 	24
scalar tree_4_3_u05_r3_network.content_distribution 	client-12 	25
scalar tree_4_3_u05_r3_network.content_distribution 	client-13 	26
scalar tree_4_3_u05_r3_network.content_distribution 	client-14 	27
scalar tree_4_3_u05_r3_network.content_distribution 	client-15 	28
scalar tree_4_3_u05_r3_network.content_distribution 	client-16 	29
scalar tree_4_3_u05_r3_network.content_distribution 	client-17 	30
scalar tree_4_3_u05_r3_network.content_distribution 	client-18 	31
scalar tree_4_3_u05_r3_network.content_distribution 	client-19 	32
scalar tree_4_3_u05_r3_network.content_distribution 	client-20 	33
scalar tree_4_3_u05_r3_network.content_distribution 	client-21 	34
scalar tree_4_3_u05_r3_network.content_distribution 	client-22 	35
scalar tree_4_3_u05_r3_network.content_distribution 	client-23 	36
scalar tree_4_3_u05_r3_network.content_distribution 	client-24 	37
scalar tree_4_3_u05_r3_network.content_distribution 	client-25 	38
scalar tree_4_3_u05_r3_network.content_distribution 	client-26 	39
scalar tree_4_3_u05_r3_network.content_distribution 	repo-0_card 	100000
scalar tree_4_3_u05_r3_network.content_distribution 	repo-0_price 	0
scalar tree_4_3_u05_r3_network.statistics 	stabilization_time 	2057.4
scalar tree_4_3_u05_r3_network.statistics 	p_hit 	0.18821609622326
scalar tree_4_3_u05_r3_network.statistics 	interests 	25466.95
scalar tree_4_3_u05_r3_network.statistics 	data 	17363.125
scalar tree_4_3_u05_r3_network.statistics 	hdistance 	2.8337239388204
scalar tree_4_3_u05_r3_network.statistics 	avg_time 	0.004285281759
scalar tree_4_3_u05_r3_network.statistics 	downloads 	324157
scalar tree_4_3_u05_r3_network.statistics 	total_cost 	0
scalar tree_4_3_u05_r3_network.statistics 	total_replicas 	100000
scalar tree_4_3_u05_r3_network.statistics 	inner_hit 	0.30900458728332
scalar tree_4_3_u05_r3_network.node[0].core_layer 	interests[0] 	226301
scalar tree_4_3_u05_r3_network.node[0].core_layer 	repo_load[0] 	223991
scalar tree_4_3_u05_r3_network.node[0].core_layer 	data[0] 	0
scalar tree_4_3_u05_r3_network.node[0].core_layer 	repo_int[0] 	223991
scalar tree_4_3_u05_r3_network.node[0].content_store 	p_hit[0] 	0.010207643801839
scalar tree_4_3_u05_r3_network.node[0].content_store 	hits[0] 	2310
scalar tree_4_3_u05_r3_network.node[0].content_store 	misses[0] 	223991
scalar tree_4_3_u05_r3_network.node[0].content_store 	decision_yes[0] 	223991
scalar tree_4_3_u05_r3_network.node[0].content_store 	decision_no[0] 	0
scalar tree_4_3_u05_r3_network.node[0].content_store 	decision_ratio[0] 	1
scalar tree_4_3_u05_r3_network.node[1].core_layer 	interests[1] 	102250
scalar tree_4_3_u05_r3_network.node[1].core_layer 	data[1] 	100166
scalar tree_4_3_u05_r3_network.node[1].content_store 	p_hit[1] 	0.020361858190709
scalar tree_4_3_u05_r3_network.node[1].content_store 	hits[1] 	2082
scalar tree_4_3_u05_r3_network.node[1].content_store 	misses[1] 	100168
scalar tree_4_3_u05_r3_network.node[1].content_store 	decision_yes[1] 	1043
scalar tree_4_3_u05_r3_network.node[1].content_store 	decision_no[1] 	99123
scalar tree_4_3_u05_r3_network.node[1].content_store 	decision_ratio[1] 	0.010412714893277
scalar tree_4_3_u05_r3_network.node[2].core_layer 	interests[2] 	85224
scalar tree_4_3_u05_r3_network.node[2].core_layer 	data[2] 	83779
scalar tree_4_3_u05_r3_network.node[2].content_store 	p_hit[2] 	0.016955317750868
scalar tree_4_3_u05_r3_network.node[2].content_store 	hits[2] 	1445
scalar tree_4_3_u05_r3_network.node[2].content_store 	misses[2] 	83779
scalar tree_4_3_u05_r3_network.node[2].content_store 	decision_yes[2] 	836
scalar tree_4_3_u05_r3_network.node[2].content_store 	decision_no[2] 	82943
scalar tree_4_3_u05_r3_network.node[2].content_store 	decision_ratio[2] 	0.0099786342639564
scalar tree_4_3_u05_r3_network.node[3].core_layer 	interests[3] 	42890
scalar tree_4_3_u05_r3_network.node[3].core_layer 	data[3] 	42357
scalar tree_4_3_u05_r3_network.node[3].content_store 	p_hit[3] 	0.012427139193285
scalar tree_4_3_u05_r3_network.node[3].content_store 	hits[3] 	533
scalar tree_4_3_u05_r3_network.node[3].content_store 	misses[3] 	42357
scalar tree_4_3_u05_r3_network.node[3].content_store 	decision_yes[3] 	431
scalar tree_4_3_u05_r3_network.node[3].content_store 	decision_no[3] 	41926
scalar tree_4_3_u05_r3_network.node[3].content_store 	decision_ratio[3] 	0.010175413745072
scalar tree_4_3_u05_r3_network.node[4].core_layer 	interests[4] 	26229
scalar tree_4_3_u05_r3_network.node[4].core_layer 	data[4] 	25345
scalar tree_4_3_u05_r3_network.node[4].content_store 	p_hit[4] 	0.033703152998589
scalar tree_4_3_u05_r3_network.node[4].content_store 	hits[4] 	884
scalar tree_4_3_u05_r3_network.node[4].content_store 	misses[4] 	25345
scalar tree_4_3_u05_r3_network.node[4].content_store 	decision_yes[4] 	522
scalar tree_4_3_u05_r3_network.node[4].content_store 	decision_no[4] 	24823
scalar tree_4_3_u05_r3_network.node[4].content_store 	decision_ratio[4] 	0.020595778260012
scalar tree_4_3_u05_r3_network.node[5].core_layer 	interests[5] 	26672
scalar tree_4_3_u05_r3_network.node[5].core_layer 	data[5] 	25776
scalar tree_4_3_u05_r3_network.node[5].content_store 	p_hit[5] 	0.033630773845231
scalar tree_4_3_u05_r3_network.node[5].content_store 	hits[5] 	897
scalar tree_4_3_u05_r3_network.node[5].content_store 	misses[5] 	25775
scalar tree_4_3_u05_r3_network.node[5].content_store 	decision_yes[5] 	532
scalar tree_4_3_u05_r3_network.node[5].content_store 	decision_no[5] 	25244
scalar tree_4_3_u05_r3_network.node[5].content_store 	decision_ratio[5] 	0.020639354438237
scalar tree_4_3_u05_r3_network.node[6].core_layer 	interests[6] 	26621
scalar tree_4_3_u05_r3_network.node[6].core_layer 	data[6] 	25752
scalar tree_4_3_u05_r3_network.node[6].content_store 	p_hit[6] 	0.0325682731678
scalar tree_4_3_u05_r3_network.node[6].content_store 	hits[6] 	867
scalar tree_4_3_u05_r3_network.node[6].content_store 	misses[6] 	25754
scalar tree_4_3_u05_r3_network.node[6].content_store 	decision_yes[6] 	512
scalar tree_4_3_u05_r3_network.node[6].content_store 	decision_no[6] 	25240
scalar tree_4_3_u05_r3_network.node[6].content_store 	decision_ratio[6] 	0.019881950916434
scalar tree_4_3_u05_r3_network.node[7].core_layer 	interests[7] 	26223
scalar tree_4_3_u05_r3_network.node[7].core_layer 	data[7] 	25378
scalar tree_4_3_u05_r3_network.node[7].content_store 	p_hit[7] 	0.032261754947946
scalar tree_4_3_u05_r3_network.node[7].content_store 	hits[7] 	846
scalar tree_4_3_u05_r3_network.node[7].content_store 	misses[7] 	25377
scalar tree_4_3_u05_r3_network.node[7].content_store 	decision_yes[7] 	516
scalar tree_4_3_u05_r3_network.node[7].content_store 	decision_no[7] 	24862
scalar tree_4_3_u05_r3_network.node[7].content_store 	decision_ratio[7] 	0.020332571518638
scalar tree_4_3_u05_r3_network.node[8].core_layer 	interests[8] 	35449
scalar tree_4_3_u05_r3_network.node[8].core_layer 	data[8] 	34308
scalar tree_4_3_u05_r3_network.node[8].content_store 	p_hit[8] 	0.032102457050975
scalar tree_4_3_u05_r3_network.node[8].content_store 	hits[8] 	1138
scalar tree_4_3_u05_r3_network.node[8].content_store 	misses[8] 	34311
scalar tree_4_3_u05_r3_network.node[8].content_store 	decision_yes[8] 	522
scalar tree_4_3_u05_r3_network.node[8].content_store 	decision_no[8] 	33786
scalar tree_4_3_u05_r3_network.node[8].content_store 	decision_ratio[8] 	0.015215110178384
scalar tree_4_3_u05_r3_network.node[9].core_layer 	interests[9] 	17497
scalar tree_4_3_u05_r3_network.node[9].core_layer 	data[9] 	16983
scalar tree_4_3_u05_r3_network.node[9].content_store 	p_hit[9] 	0.029433617191519
scalar tree_4_3_u05_r3_network.node[9].content_store 	hits[9] 	515
scalar tree_4_3_u05_r3_network.node[9].content_store 	misses[9] 	16982
scalar tree_4_3_u05_r3_network.node[9].content_store 	decision_yes[9] 	357
scalar tree_4_3_u05_r3_network.node[9].content_store 	decision_no[9] 	16626
scalar tree_4_3_u05_r3_network.node[9].content_store 	decision_ratio[9] 	0.021021021021021
scalar tree_4_3_u05_r3_network.node[10].core_layer 	interests[10] 	35318
scalar tree_4_3_u05_r3_network.node[10].core_layer 	data[10] 	34364
scalar tree_4_3_u05_r3_network.node[10].content_store 	p_hit[10] 	0.026983407893992
scalar tree_4_3_u05_r3_network.node[10].content_store 	hits[10] 	953
scalar tree_4_3_u05_r3_network.node[10].content_store 	misses[10] 	34365
scalar tree_4_3_u05_r3_network.node[10].content_store 	decision_yes[10] 	363
scalar tree_4_3_u05_r3_network.node[10].content_store 	decision_no[10] 	34001
scalar tree_4_3_u05_r3_network.node[10].content_store 	decision_ratio[10] 	0.01056338028169
scalar tree_4_3_u05_r3_network.node[11].core_layer 	interests[11] 	35075
scalar tree_4_3_u05_r3_network.node[11].core_layer 	data[11] 	33933
scalar tree_4_3_u05_r3_network.node[11].content_store 	p_hit[11] 	0.032473271560941
scalar tree_4_3_u05_r3_network.node[11].content_store 	hits[11] 	1139
scalar tree_4_3_u05_r3_network.node[11].content_store 	misses[11] 	33936
scalar tree_4_3_u05_r3_network.node[11].content_store 	decision_yes[11] 	566
scalar tree_4_3_u05_r3_network.node[11].content_store 	decision_no[11] 	33367
scalar tree_4_3_u05_r3_network.node[11].content_store 	decision_ratio[11] 	0.016679928093596
scalar tree_4_3_u05_r3_network.node[12].core_layer 	interests[12] 	8771
scalar tree_4_3_u05_r3_network.node[12].core_layer 	data[12] 	8526
scalar tree_4_3_u05_r3_network.node[12].content_store 	p_hit[12] 	0.027932960893855
scalar tree_4_3_u05_r3_network.node[12].content_store 	hits[12] 	245
scalar tree_4_3_u05_r3_network.node[12].content_store 	misses[12] 	8526
scalar tree_4_3_u05_r3_network.node[12].content_store 	decision_yes[12] 	170
scalar tree_4_3_u05_r3_network.node[12].content_store 	decision_no[12] 	8356
scalar tree_4_3_u05_r3_network.node[12].content_store 	decision_ratio[12] 	0.019939010086793
scalar tree_4_3_u05_r3_network.node[13].core_layer 	interests[13] 	12010
scalar tree_4_3_u05_r3_network.node[13].core_layer 	data[13] 	8747
scalar tree_4_3_u05_r3_network.node[13].content_store 	p_hit[13] 	0.27169025811823
scalar tree_4_3_u05_r3_network.node[13].content_store 	hits[13] 	3263
scalar tree_4_3_u05_r3_network.node[13].content_store 	misses[13] 	8747
scalar tree_4_3_u05_r3_network.node[13].content_store 	decision_yes[13] 	299
scalar tree_4_3_u05_r3_network.node[13].content_store 	decision_no[13] 	8448
scalar tree_4_3_u05_r3_network.node[13].content_store 	decision_ratio[13] 	0.03418314850806
scalar tree_4_3_u05_r3_network.node[14].core_layer 	interests[14] 	11899
scalar tree_4_3_u05_r3_network.node[14].core_layer 	data[14] 	8661
scalar tree_4_3_u05_r3_network.node[14].content_store 	p_hit[14] 	0.27212370787461
scalar tree_4_3_u05_r3_network.node[14].content_store 	hits[14] 	3238
scalar tree_4_3_u05_r3_network.node[14].content_store 	misses[14] 	8661
scalar tree_4_3_u05_r3_network.node[14].content_store 	decision_yes[14] 	285
scalar tree_4_3_u05_r3_network.node[14].content_store 	decision_no[14] 	8376
scalar tree_4_3_u05_r3_network.node[14].content_store 	decision_ratio[14] 	0.032906130931763
scalar tree_4_3_u05_r3_network.node[15].core_layer 	interests[15] 	12010
scalar tree_4_3_u05_r3_network.node[15].core_layer 	data[15] 	8821
scalar tree_4_3_u05_r3_network.node[15].content_store 	p_hit[15] 	0.26552872606162
scalar tree_4_3_u05_r3_network.node[15].content_store 	hits[15] 	3189
scalar tree_4_3_u05_r3_network.node[15].content_store 	misses[15] 	8821
scalar tree_4_3_u05_r3_network.node[15].content_store 	decision_yes[15] 	300
scalar tree_4_3_u05_r3_network.node[15].content_store 	decision_no[15] 	8521
scalar tree_4_3_u05_r3_network.node[15].content_store 	decision_ratio[15] 	0.034009749461512
scalar tree_4_3_u05_r3_network.node[16].core_layer 	interests[16] 	12025
scalar tree_4_3_u05_r3_network.node[16].core_layer 	data[16] 	8871
scalar tree_4_3_u05_r3_network.node[16].content_store 	p_hit[16] 	0.26237006237006
scalar tree_4_3_u05_r3_network.node[16].content_store 	hits[16] 	3155
scalar tree_4_3_u05_r3_network.node[16].content_store 	misses[16] 	8870
scalar tree_4_3_u05_r3_network.node[16].content_store 	decision_yes[16] 	292
scalar tree_4_3_u05_r3_network.node[16].content_store 	decision_no[16] 	8579
scalar tree_4_3_u05_r3_network.node[16].content_store 	decision_ratio[16] 	0.032916243940931
scalar tree_4_3_u05_r3_network.node[17].core_layer 	interests[17] 	12106
scalar tree_4_3_u05_r3_network.node[17].core_layer 	data[17] 	8885
scalar tree_4_3_u05_r3_network.node[17].content_store 	p_hit[17] 	0.26598380968115
scalar tree_4_3_u05_r3_network.node[17].content_store 	hits[17] 	3220
scalar tree_4_3_u05_r3_network.node[17].content_store 	misses[17] 	8886
scalar tree_4_3_u05_r3_network.node[17].content_store 	decision_yes[17] 	295
scalar tree_4_3_u05_r3_network.node[17].content_store 	decision_no[17] 	8590
scalar tree_4_3_u05_r3_network.node[17].content_store 	decision_ratio[17] 	0.033202025886325
scalar tree_4_3_u05_r3_network.node[18].core_layer 	interests[18] 	12032
scalar tree_4_3_u05_r3_network.node[18].core_layer 	data[18] 	8917
scalar tree_4_3_u05_r3_network.node[18].content_store 	p_hit[18] 	0.25889295212766
scalar tree_4_3_u05_r3_network.node[18].content_store 	hits[18] 	3115
scalar tree_4_3_u05_r3_network.node[18].content_store 	misses[18] 	8917
scalar tree_4_3_u05_r3_network.node[18].content_store 	decision_yes[18] 	310
scalar tree_4_3_u05_r3_network.node[18].content_store 	decision_no[18] 	8607
scalar tree_4_3_u05_r3_network.node[18].content_store 	decision_ratio[18] 	0.034765055511943
scalar tree_4_3_u05_r3_network.node[19].core_layer 	interests[19] 	12118
scalar tree_4_3_u05_r3_network.node[19].core_layer 	data[19] 	8938
scalar tree_4_3_u05_r3_network.node[19].content_store 	p_hit[19] 	0.26241954117841
scalar tree_4_3_u05_r3_network.node[19].content_store 	hits[19] 	3180
scalar tree_4_3_u05_r3_network.node[19].content_store 	misses[19] 	8938
scalar tree_4_3_u05_r3_network.node[19].content_store 	decision_yes[19] 	279
scalar tree_4_3_u05_r3_network.node[19].content_store 	decision_no[19] 	8659
scalar tree_4_3_u05_r3_network.node[19].content_store 	decision_ratio[19] 	0.031215036921011
scalar tree_4_3_u05_r3_network.node[20].core_layer 	interests[20] 	11959
scalar tree_4_3_u05_r3_network.node[20].core_layer 	data[20] 	8802
scalar tree_4_3_u05_r3_network.node[20].content_store 	p_hit[20] 	0.26398528305042
scalar tree_4_3_u05_r3_network.node[20].content_store 	hits[20] 	3157
scalar tree_4_3_u05_r3_network.node[20].content_store 	misses[20] 	8802
scalar tree_4_3_u05_r3_network.node[20].content_store 	decision_yes[20] 	291
scalar tree_4_3_u05_r3_network.node[20].content_store 	decision_no[20] 	8511
scalar tree_4_3_u05_r3_network.node[20].content_store 	decision_ratio[20] 	0.033060668029993
scalar tree_4_3_u05_r3_network.node[21].core_layer 	interests[21] 	12172
scalar tree_4_3_u05_r3_network.node[21].core_layer 	data[21] 	8881
scalar tree_4_3_u05_r3_network.node[21].content_store 	p_hit[21] 	0.27037463029905
scalar tree_4_3_u05_r3_network.node[21].content_store 	hits[21] 	3291
scalar tree_4_3_u05_r3_network.node[21].content_store 	misses[21] 	8881
scalar tree_4_3_u05_r3_network.node[21].content_store 	decision_yes[21] 	297
scalar tree_4_3_u05_r3_network.node[21].content_store 	decision_no[21] 	8584
scalar tree_4_3_u05_r3_network.node[21].content_store 	decision_ratio[21] 	0.033442179934692
scalar tree_4_3_u05_r3_network.node[22].core_layer 	interests[22] 	11967
scalar tree_4_3_u05_r3_network.node[22].core_layer 	data[22] 	8753
scalar tree_4_3_u05_r3_network.node[22].content_store 	p_hit[22] 	0.26857190607504
scalar tree_4_3_u05_r3_network.node[22].content_store 	hits[22] 	3214
scalar tree_4_3_u05_r3_network.node[22].content_store 	misses[22] 	8753
scalar tree_4_3_u05_r3_network.node[22].content_store 	decision_yes[22] 	290
scalar tree_4_3_u05_r3_network.node[22].content_store 	decision_no[22] 	8463
scalar tree_4_3_u05_r3_network.node[22].content_store 	decision_ratio[22] 	0.033131497772192
scalar tree_4_3_u05_r3_network.node[23].core_layer 	interests[23] 	11982
scalar tree_4_3_u05_r3_network.node[23].core_layer 	data[23] 	8852
scalar tree_4_3_u05_r3_network.node[23].content_store 	p_hit[23] 	0.26122517108997
scalar tree_4_3_u05_r3_network.node[23].content_store 	hits[23] 	3130
scalar tree_4_3_u05_r3_network.node[23].content_store 	misses[23] 	8852
scalar tree_4_3_u05_r3_network.node[23].content_store 	decision_yes[23] 	286
scalar tree_4_3_u05_r3_network.node[23].content_store 	decision_no[23] 	8566
scalar tree_4_3_u05_r3_network.node[23].content_store 	decision_ratio[23] 	0.032309082693177
scalar tree_4_3_u05_r3_network.node[24].core_layer 	interests[24] 	11899
scalar tree_4_3_u05_r3_network.node[24].core_layer 	data[24] 	8619
scalar tree_4_3_u05_r3_network.node[24].content_store 	p_hit[24] 	0.27573745692915
scalar tree_4_3_u05_r3_network.node[24].content_store 	hits[24] 	3281
scalar tree_4_3_u05_r3_network.node[24].content_store 	misses[24] 	8618
scalar tree_4_3_u05_r3_network.node[24].content_store 	decision_yes[24] 	270
scalar tree_4_3_u05_r3_network.node[24].content_store 	decision_no[24] 	8349
scalar tree_4_3_u05_r3_network.node[24].content_store 	decision_ratio[24] 	0.031326139923425
scalar tree_4_3_u05_r3_network.node[25].core_layer 	interests[25] 	11924
scalar tree_4_3_u05_r3_network.node[25].core_layer 	data[25] 	8850
scalar tree_4_3_u05_r3_network.node[25].content_store 	p_hit[25] 	0.25779939617578
scalar tree_4_3_u05_r3_network.node[25].content_store 	hits[25] 	3074
scalar tree_4_3_u05_r3_network.node[25].content_store 	misses[25] 	8850
scalar tree_4_3_u05_r3_network.node[25].content_store 	decision_yes[25] 	278
scalar tree_4_3_u05_r3_network.node[25].content_store 	decision_no[25] 	8572
scalar tree_4_3_u05_r3_network.node[25].content_store 	decision_ratio[25] 	0.031412429378531
scalar tree_4_3_u05_r3_network.node[26].core_layer 	interests[26] 	12230
scalar tree_4_3_u05_r3_network.node[26].core_layer 	data[26] 	8906
scalar tree_4_3_u05_r3_network.node[26].content_store 	p_hit[26] 	0.27179067865904
scalar tree_4_3_u05_r3_network.node[26].content_store 	hits[26] 	3324
scalar tree_4_3_u05_r3_network.node[26].content_store 	misses[26] 	8906
scalar tree_4_3_u05_r3_network.node[26].content_store 	decision_yes[26] 	299
scalar tree_4_3_u05_r3_network.node[26].content_store 	decision_no[26] 	8607
scalar tree_4_3_u05_r3_network.node[26].content_store 	decision_ratio[26] 	0.033572872220975
scalar tree_4_3_u05_r3_network.node[27].core_layer 	interests[27] 	11734
scalar tree_4_3_u05_r3_network.node[27].core_layer 	data[27] 	8682
scalar tree_4_3_u05_r3_network.node[27].content_store 	p_hit[27] 	0.25992841315834
scalar tree_4_3_u05_r3_network.node[27].content_store 	hits[27] 	3050
scalar tree_4_3_u05_r3_network.node[27].content_store 	misses[27] 	8684
scalar tree_4_3_u05_r3_network.node[27].content_store 	decision_yes[27] 	284
scalar tree_4_3_u05_r3_network.node[27].content_store 	decision_no[27] 	8398
scalar tree_4_3_u05_r3_network.node[27].content_store 	decision_ratio[27] 	0.032711356830223
scalar tree_4_3_u05_r3_network.node[28].core_layer 	interests[28] 	12206
scalar tree_4_3_u05_r3_network.node[28].core_layer 	data[28] 	8782
scalar tree_4_3_u05_r3_network.node[28].content_store 	p_hit[28] 	0.28059970506308
scalar tree_4_3_u05_r3_network.node[28].content_store 	hits[28] 	3425
scalar tree_4_3_u05_r3_network.node[28].content_store 	misses[28] 	8781
scalar tree_4_3_u05_r3_network.node[28].content_store 	decision_yes[28] 	246
scalar tree_4_3_u05_r3_network.node[28].content_store 	decision_no[28] 	8536
scalar tree_4_3_u05_r3_network.node[28].content_store 	decision_ratio[28] 	0.028011842404919
scalar tree_4_3_u05_r3_network.node[29].core_layer 	interests[29] 	12167
scalar tree_4_3_u05_r3_network.node[29].core_layer 	data[29] 	9010
scalar tree_4_3_u05_r3_network.node[29].content_store 	p_hit[29] 	0.25939015369442
scalar tree_4_3_u05_r3_network.node[29].content_store 	hits[29] 	3156
scalar tree_4_3_u05_r3_network.node[29].content_store 	misses[29] 	9011
scalar tree_4_3_u05_r3_network.node[29].content_store 	decision_yes[29] 	277
scalar tree_4_3_u05_r3_network.node[29].content_store 	decision_no[29] 	8733
scalar tree_4_3_u05_r3_network.node[29].content_store 	decision_ratio[29] 	0.030743618201998
scalar tree_4_3_u05_r3_network.node[30].core_layer 	interests[30] 	11873
scalar tree_4_3_u05_r3_network.node[30].core_layer 	data[30] 	8716
scalar tree_4_3_u05_r3_network.node[30].content_store 	p_hit[30] 	0.26589741430136
scalar tree_4_3_u05_r3_network.node[30].content_store 	hits[30] 	3157
scalar tree_4_3_u05_r3_network.node[30].content_store 	misses[30] 	8716
scalar tree_4_3_u05_r3_network.node[30].content_store 	decision_yes[30] 	269
scalar tree_4_3_u05_r3_network.node[30].content_store 	decision_no[30] 	8447
scalar tree_4_3_u05_r3_network.node[30].content_store 	decision_ratio[30] 	0.030862781092244
scalar tree_4_3_u05_r3_network.node[31].core_layer 	interests[31] 	11778
scalar tree_4_3_u05_r3_network.node[31].core_layer 	data[31] 	8657
scalar tree_4_3_u05_r3_network.node[31].content_store 	p_hit[31] 	0.26490066225166
scalar tree_4_3_u05_r3_network.node[31].content_store 	hits[31] 	3120
scalar tree_4_3_u05_r3_network.node[31].content_store 	misses[31] 	8658
scalar tree_4_3_u05_r3_network.node[31].content_store 	decision_yes[31] 	235
scalar tree_4_3_u05_r3_network.node[31].content_store 	decision_no[31] 	8422
scalar tree_4_3_u05_r3_network.node[31].content_store 	decision_ratio[31] 	0.027145662469678
scalar tree_4_3_u05_r3_network.node[32].core_layer 	interests[32] 	11981
scalar tree_4_3_u05_r3_network.node[32].core_layer 	data[32] 	8826
scalar tree_4_3_u05_r3_network.node[32].content_store 	p_hit[32] 	0.26333361155162
scalar tree_4_3_u05_r3_network.node[32].content_store 	hits[32] 	3155
scalar tree_4_3_u05_r3_network.node[32].content_store 	misses[32] 	8826
scalar tree_4_3_u05_r3_network.node[32].content_store 	decision_yes[32] 	237
scalar tree_4_3_u05_r3_network.node[32].content_store 	decision_no[32] 	8589
scalar tree_4_3_u05_r3_network.node[32].content_store 	decision_ratio[32] 	0.026852481305235
scalar tree_4_3_u05_r3_network.node[33].core_layer 	interests[33] 	12222
scalar tree_4_3_u05_r3_network.node[33].core_layer 	data[33] 	9005
scalar tree_4_3_u05_r3_network.node[33].content_store 	p_hit[33] 	0.26329569628539
scalar tree_4_3_u05_r3_network.node[33].content_store 	hits[33] 	3218
scalar tree_4_3_u05_r3_network.node[33].content_store 	misses[33] 	9004
scalar tree_4_3_u05_r3_network.node[33].content_store 	decision_yes[33] 	237
scalar tree_4_3_u05_r3_network.node[33].content_store 	decision_no[33] 	8768
scalar tree_4_3_u05_r3_network.node[33].content_store 	decision_ratio[33] 	0.026318711826763
scalar tree_4_3_u05_r3_network.node[34].core_layer 	interests[34] 	11825
scalar tree_4_3_u05_r3_network.node[34].core_layer 	data[34] 	8695
scalar tree_4_3_u05_r3_network.node[34].content_store 	p_hit[34] 	0.26469344608879
scalar tree_4_3_u05_r3_network.node[34].content_store 	hits[34] 	3130
scalar tree_4_3_u05_r3_network.node[34].content_store 	misses[34] 	8695
scalar tree_4_3_u05_r3_network.node[34].content_store 	decision_yes[34] 	282
scalar tree_4_3_u05_r3_network.node[34].content_store 	decision_no[34] 	8413
scalar tree_4_3_u05_r3_network.node[34].content_store 	decision_ratio[34] 	0.032432432432432
scalar tree_4_3_u05_r3_network.node[35].core_layer 	interests[35] 	12073
scalar tree_4_3_u05_r3_network.node[35].core_layer 	data[35] 	8786
scalar tree_4_3_u05_r3_network.node[35].content_store 	p_hit[35] 	0.27226041580386
scalar tree_4_3_u05_r3_network.node[35].content_store 	hits[35] 	3287
scalar tree_4_3_u05_r3_network.node[35].content_store 	misses[35] 	8786
scalar tree_4_3_u05_r3_network.node[35].content_store 	decision_yes[35] 	288
scalar tree_4_3_u05_r3_network.node[35].content_store 	decision_no[35] 	8498
scalar tree_4_3_u05_r3_network.node[35].content_store 	decision_ratio[35] 	0.032779421807421
scalar tree_4_3_u05_r3_network.node[36].core_layer 	interests[36] 	12074
scalar tree_4_3_u05_r3_network.node[36].core_layer 	data[36] 	8808
scalar tree_4_3_u05_r3_network.node[36].content_store 	p_hit[36] 	0.2704985920159
scalar tree_4_3_u05_r3_network.node[36].content_store 	hits[36] 	3266
scalar tree_4_3_u05_r3_network.node[36].content_store 	misses[36] 	8808
scalar tree_4_3_u05_r3_network.node[36].content_store 	decision_yes[36] 	303
scalar tree_4_3_u05_r3_network.node[36].content_store 	decision_no[36] 	8505
scalar tree_4_3_u05_r3_network.node[36].content_store 	decision_ratio[36] 	0.034400544959128
scalar tree_4_3_u05_r3_network.node[37].core_layer 	interests[37] 	11890
scalar tree_4_3_u05_r3_network.node[37].core_layer 	data[37] 	8831
scalar tree_4_3_u05_r3_network.node[37].content_store 	p_hit[37] 	0.25727502102607
scalar tree_4_3_u05_r3_network.node[37].content_store 	hits[37] 	3059
scalar tree_4_3_u05_r3_network.node[37].content_store 	misses[37] 	8831
scalar tree_4_3_u05_r3_network.node[37].content_store 	decision_yes[37] 	244
scalar tree_4_3_u05_r3_network.node[37].content_store 	decision_no[37] 	8587
scalar tree_4_3_u05_r3_network.node[37].content_store 	decision_ratio[37] 	0.027629939984147
scalar tree_4_3_u05_r3_network.node[38].core_layer 	interests[38] 	11988
scalar tree_4_3_u05_r3_network.node[38].core_layer 	data[38] 	8786
scalar tree_4_3_u05_r3_network.node[38].content_store 	p_hit[38] 	0.2671004337671
scalar tree_4_3_u05_r3_network.node[38].content_store 	hits[38] 	3202
scalar tree_4_3_u05_r3_network.node[38].content_store 	misses[38] 	8786
scalar tree_4_3_u05_r3_network.node[38].content_store 	decision_yes[38] 	266
scalar tree_4_3_u05_r3_network.node[38].content_store 	decision_no[38] 	8520
scalar tree_4_3_u05_r3_network.node[38].content_store 	decision_ratio[38] 	0.030275438197132
scalar tree_4_3_u05_r3_network.node[39].core_layer 	interests[39] 	12014
scalar tree_4_3_u05_r3_network.node[39].core_layer 	data[39] 	8771
scalar tree_4_3_u05_r3_network.node[39].content_store 	p_hit[39] 	0.26993507574496
scalar tree_4_3_u05_r3_network.node[39].content_store 	hits[39] 	3243
scalar tree_4_3_u05_r3_network.node[39].content_store 	misses[39] 	8771
scalar tree_4_3_u05_r3_network.node[39].content_store 	decision_yes[39] 	245
scalar tree_4_3_u05_r3_network.node[39].content_store 	decision_no[39] 	8526
scalar tree_4_3_u05_r3_network.node[39].content_store 	decision_ratio[39] 	0.027932960893855
scalar tree_4_3_u05_r3_network.client[13] 	hdistance[13] 	2.8026644462947
scalar tree_4_3_u05_r3_network.client[13] 	downloads[13] 	12010
scalar tree_4_3_u05_r3_network.client[13] 	avg_time[13] 	0.004242461608
scalar tree_4_3_u05_r3_network.client[14] 	hdistance[14] 	2.8028405748382
scalar tree_4_3_u05_r3_network.client[14] 	downloads[14] 	11899
scalar tree_4_3_u05_r3_network.client[14] 	avg_time[14] 	0.004240857593
scalar tree_4_3_u05_r3_network.client[15] 	hdistance[15] 	2.8265611990008
scalar tree_4_3_u05_r3_network.client[15] 	downloads[15] 	12010
scalar tree_4_3_u05_r3_network.client[15] 	avg_time[15] 	0.004278098586
scalar tree_4_3_u05_r3_network.client[16] 	hdistance[16] 	2.8434225844005
scalar tree_4_3_u05_r3_network.client[16] 	downloads[16] 	12026
scalar tree_4_3_u05_r3_network.client[16] 	avg_time[16] 	0.004300346195
scalar tree_4_3_u05_r3_network.client[17] 	hdistance[17] 	2.8259396943412
scalar tree_4_3_u05_r3_network.client[17] 	downloads[17] 	12105
scalar tree_4_3_u05_r3_network.client[17] 	avg_time[17] 	0.004276914905
scalar tree_4_3_u05_r3_network.client[18] 	hdistance[18] 	2.8492353723404
scalar tree_4_3_u05_r3_network.client[18] 	downloads[18] 	12032
scalar tree_4_3_u05_r3_network.client[18] 	avg_time[18] 	0.004313328092
scalar tree_4_3_u05_r3_network.client[19] 	hdistance[19] 	2.8474170655224
scalar tree_4_3_u05_r3_network.client[19] 	downloads[19] 	12118
scalar tree_4_3_u05_r3_network.client[19] 	avg_time[19] 	0.00430590322
scalar tree_4_3_u05_r3_network.client[20] 	hdistance[20] 	2.837026507233
scalar tree_4_3_u05_r3_network.client[20] 	downloads[20] 	11959
scalar tree_4_3_u05_r3_network.client[20] 	avg_time[20] 	0.004291167378
scalar tree_4_3_u05_r3_network.client[21] 	hdistance[21] 	2.8072625698324
scalar tree_4_3_u05_r3_network.client[21] 	downloads[21] 	12172
scalar tree_4_3_u05_r3_network.client[21] 	avg_time[21] 	0.004249914766
scalar tree_4_3_u05_r3_network.client[22] 	hdistance[22] 	2.8197543243921
scalar tree_4_3_u05_r3_network.client[22] 	downloads[22] 	11967
scalar tree_4_3_u05_r3_network.client[22] 	avg_time[22] 	0.00426589489
scalar tree_4_3_u05_r3_network.client[23] 	hdistance[23] 	2.846853613754
scalar tree_4_3_u05_r3_network.client[23] 	downloads[23] 	11982
scalar tree_4_3_u05_r3_network.client[23] 	avg_time[23] 	0.00430812587
scalar tree_4_3_u05_r3_network.client[24] 	hdistance[24] 	2.7897478991597
scalar tree_4_3_u05_r3_network.client[24] 	downloads[24] 	11900
scalar tree_4_3_u05_r3_network.client[24] 	avg_time[24] 	0.004223358355
scalar tree_4_3_u05_r3_network.client[25] 	hdistance[25] 	2.8687520966119
scalar tree_4_3_u05_r3_network.client[25] 	downloads[25] 	11924
scalar tree_4_3_u05_r3_network.client[25] 	avg_time[25] 	0.004336404636
scalar tree_4_3_u05_r3_network.client[26] 	hdistance[26] 	2.8150449713818
scalar tree_4_3_u05_r3_network.client[26] 	downloads[26] 	12230
scalar tree_4_3_u05_r3_network.client[26] 	avg_time[26] 	0.004253308458
scalar tree_4_3_u05_r3_network.client[27] 	hdistance[27] 	2.8583361745653
scalar tree_4_3_u05_r3_network.client[27] 	downloads[27] 	11732
scalar tree_4_3_u05_r3_network.client[27] 	avg_time[27] 	0.004321416547
scalar tree_4_3_u05_r3_network.client[28] 	hdistance[28] 	2.7816826411076
scalar tree_4_3_u05_r3_network.client[28] 	downloads[28] 	12207
scalar tree_4_3_u05_r3_network.client[28] 	avg_time[28] 	0.004206435876
scalar tree_4_3_u05_r3_network.client[29] 	hdistance[29] 	2.8628965970738
scalar tree_4_3_u05_r3_network.client[29] 	downloads[29] 	12166
scalar tree_4_3_u05_r3_network.client[29] 	avg_time[29] 	0.00432880247
scalar tree_4_3_u05_r3_network.client[30] 	hdistance[30] 	2.8314663522277
scalar tree_4_3_u05_r3_network.client[30] 	downloads[30] 	11873
scalar tree_4_3_u05_r3_network.client[30] 	avg_time[30] 	0.004284171198
scalar tree_4_3_u05_r3_network.client[31] 	hdistance[31] 	2.8574339814893
scalar tree_4_3_u05_r3_network.client[31] 	downloads[31] 	11777
scalar tree_4_3_u05_r3_network.client[31] 	avg_time[31] 	0.004314189004
scalar tree_4_3_u05_r3_network.client[32] 	hdistance[32] 	2.8647024455388
scalar tree_4_3_u05_r3_network.client[32] 	downloads[32] 	11981
scalar tree_4_3_u05_r3_network.client[32] 	avg_time[32] 	0.004325512401
scalar tree_4_3_u05_r3_network.client[33] 	hdistance[33] 	2.8660721590444
scalar tree_4_3_u05_r3_network.client[33] 	downloads[33] 	12223
scalar tree_4_3_u05_r3_network.client[33] 	avg_time[33] 	0.004327248864
scalar tree_4_3_u05_r3_network.client[34] 	hdistance[34] 	2.8367019027484
scalar tree_4_3_u05_r3_network.client[34] 	downloads[34] 	11825
scalar tree_4_3_u05_r3_network.client[34] 	avg_time[34] 	0.004290804249
scalar tree_4_3_u05_r3_network.client[35] 	hdistance[35] 	2.808415472542
scalar tree_4_3_u05_r3_network.client[35] 	downloads[35] 	12073
scalar tree_4_3_u05_r3_network.client[35] 	avg_time[35] 	0.004246738423
scalar tree_4_3_u05_r3_network.client[36] 	hdistance[36] 	2.8158025509359
scalar tree_4_3_u05_r3_network.client[36] 	downloads[36] 	12074
scalar tree_4_3_u05_r3_network.client[36] 	avg_time[36] 	0.004256607244
scalar tree_4_3_u05_r3_network.client[37] 	hdistance[37] 	2.8881412952061
scalar tree_4_3_u05_r3_network.client[37] 	downloads[37] 	11890
scalar tree_4_3_u05_r3_network.client[37] 	avg_time[37] 	0.004360467977
scalar tree_4_3_u05_r3_network.client[38] 	hdistance[38] 	2.8327494160827
scalar tree_4_3_u05_r3_network.client[38] 	downloads[38] 	11988
scalar tree_4_3_u05_r3_network.client[38] 	avg_time[38] 	0.004283613976
scalar tree_4_3_u05_r3_network.client[39] 	hdistance[39] 	2.8236224404861
scalar tree_4_3_u05_r3_network.client[39] 	downloads[39] 	12014
scalar tree_4_3_u05_r3_network.client[39] 	avg_time[39] 	0.004270514713
