version 2
run General-12-20160826-13:41:30-5712
attr D never
attr F nrr
attr R lru
attr a 0.9
attr configname General
attr datetime 20160826-13:41:30
attr experiment General
attr inifile hw5115/scenario_C/omnetp.ini
attr iterationvars "$net=tiger, $rep=3, $a=0.9, $F=nrr, $D=never, $R=lru, $window=60, $variance=0.05, $mytime=600"
attr iterationvars2 "$net=tiger, $rep=3, $a=0.9, $F=nrr, $D=never, $R=lru, $window=60, $variance=0.05, $mytime=600, $repetition=0"
attr measurement "$net=tiger, $rep=3, $a=0.9, $F=nrr, $D=never, $R=lru, $window=60, $variance=0.05, $mytime=600"
attr mytime 600
attr net tiger
attr network networks.${net=geant,tiger}_network
attr processid 5712
attr rep 3
attr repetition 0
attr replication #0
attr resultdir results
attr runnumber 12
attr seedset 3
attr variance 0.05
attr window 60

scalar . 	a 	0.9
scalar . 	mytime 	600
scalar . 	rep 	3
scalar . 	variance 	0.05
scalar . 	window 	60
scalar tiger_network.content_distribution 	repo-0 	9
scalar tiger_network.content_distribution 	repo-1 	4
scalar tiger_network.content_distribution 	repo-2 	15
scalar tiger_network.content_distribution 	repo-3 	0
scalar tiger_network.content_distribution 	repo-4 	17
scalar tiger_network.content_distribution 	repo-5 	16
scalar tiger_network.content_distribution 	repo-6 	8
scalar tiger_network.content_distribution 	repo-7 	10
scalar tiger_network.content_distribution 	repo-8 	19
scalar tiger_network.content_distribution 	repo-9 	11
scalar tiger_network.content_distribution 	repo-10 	1
scalar tiger_network.content_distribution 	repo-11 	14
scalar tiger_network.content_distribution 	repo-12 	13
scalar tiger_network.content_distribution 	repo-13 	5
scalar tiger_network.content_distribution 	repo-14 	12
scalar tiger_network.content_distribution 	repo-15 	18
scalar tiger_network.content_distribution 	client-0 	21
scalar tiger_network.content_distribution 	client-1 	9
scalar tiger_network.content_distribution 	client-2 	6
scalar tiger_network.content_distribution 	client-3 	2
scalar tiger_network.content_distribution 	client-4 	14
scalar tiger_network.content_distribution 	client-5 	8
scalar tiger_network.content_distribution 	client-6 	17
scalar tiger_network.content_distribution 	client-7 	0
scalar tiger_network.content_distribution 	client-8 	19
scalar tiger_network.content_distribution 	client-9 	10
scalar tiger_network.content_distribution 	client-10 	13
scalar tiger_network.content_distribution 	client-11 	1
scalar tiger_network.content_distribution 	client-12 	3
scalar tiger_network.content_distribution 	client-13 	18
scalar tiger_network.content_distribution 	client-14 	15
scalar tiger_network.content_distribution 	client-15 	16
scalar tiger_network.content_distribution 	client-16 	12
scalar tiger_network.content_distribution 	client-17 	11
scalar tiger_network.content_distribution 	client-18 	7
scalar tiger_network.content_distribution 	client-19 	4
scalar tiger_network.content_distribution 	client-20 	5
scalar tiger_network.content_distribution 	client-21 	20
scalar tiger_network.content_distribution 	repo-0_card 	6259
scalar tiger_network.content_distribution 	repo-0_price 	0
scalar tiger_network.content_distribution 	repo-1_card 	6295
scalar tiger_network.content_distribution 	repo-1_price 	0
scalar tiger_network.content_distribution 	repo-2_card 	6227
scalar tiger_network.content_distribution 	repo-2_price 	0
scalar tiger_network.content_distribution 	repo-3_card 	6346
scalar tiger_network.content_distribution 	repo-3_price 	0
scalar tiger_network.content_distribution 	repo-4_card 	6235
scalar tiger_network.content_distribution 	repo-4_price 	0
scalar tiger_network.content_distribution 	repo-5_card 	6255
scalar tiger_network.content_distribution 	repo-5_price 	0
scalar tiger_network.content_distribution 	repo-6_card 	6210
scalar tiger_network.content_distribution 	repo-6_price 	0
scalar tiger_network.content_distribution 	repo-7_card 	6205
scalar tiger_network.content_distribution 	repo-7_price 	0
scalar tiger_network.content_distribution 	repo-8_card 	6107
scalar tiger_network.content_distribution 	repo-8_price 	0
scalar tiger_network.content_distribution 	repo-9_card 	6254
scalar tiger_network.content_distribution 	repo-9_price 	0
scalar tiger_network.content_distribution 	repo-10_card 	6251
scalar tiger_network.content_distribution 	repo-10_price 	0
scalar tiger_network.content_distribution 	repo-11_card 	6302
scalar tiger_network.content_distribution 	repo-11_price 	0
scalar tiger_network.content_distribution 	repo-12_card 	6401
scalar tiger_network.content_distribution 	repo-12_price 	0
scalar tiger_network.content_distribution 	repo-13_card 	6212
scalar tiger_network.content_distribution 	repo-13_price 	0
scalar tiger_network.content_distribution 	repo-14_card 	6236
scalar tiger_network.content_distribution 	repo-14_price 	0
scalar tiger_network.content_distribution 	repo-15_card 	6205
scalar tiger_network.content_distribution 	repo-15_price 	0
scalar tiger_network.statistics 	stabilization_time 	3.2300209573625e-316
scalar tiger_network.statistics 	p_hit 	0
scalar tiger_network.statistics 	interests 	42890.681818182
scalar tiger_network.statistics 	data 	30875.363636364
scalar tiger_network.statistics 	hdistance 	3.5706247370023
scalar tiger_network.statistics 	avg_time 	0.000989801922
scalar tiger_network.statistics 	downloads 	264312
scalar tiger_network.statistics 	total_cost 	0
scalar tiger_network.statistics 	total_replicas 	100000
scalar tiger_network.statistics 	inner_hit 	0.00041995823118133
scalar tiger_network.node[0].core_layer 	interests[0] 	56931
scalar tiger_network.node[0].core_layer 	repo_load[0] 	12292
scalar tiger_network.node[0].core_layer 	data[0] 	44635
scalar tiger_network.node[0].core_layer 	repo_int[0] 	264201
scalar tiger_network.node[0].content_store 	p_hit[0] 	0
scalar tiger_network.node[0].content_store 	hits[0] 	0
scalar tiger_network.node[0].content_store 	misses[0] 	56931
scalar tiger_network.node[0].content_store 	decision_yes[0] 	0
scalar tiger_network.node[0].content_store 	decision_no[0] 	56927
scalar tiger_network.node[0].content_store 	decision_ratio[0] 	0
scalar tiger_network.node[1].core_layer 	interests[1] 	63180
scalar tiger_network.node[1].core_layer 	repo_load[1] 	15022
scalar tiger_network.node[1].core_layer 	data[1] 	48145
scalar tiger_network.node[1].content_store 	p_hit[1] 	0
scalar tiger_network.node[1].content_store 	hits[1] 	0
scalar tiger_network.node[1].content_store 	misses[1] 	63180
scalar tiger_network.node[1].content_store 	decision_yes[1] 	0
scalar tiger_network.node[1].content_store 	decision_no[1] 	63167
scalar tiger_network.node[1].content_store 	decision_ratio[1] 	0
scalar tiger_network.node[2].core_layer 	interests[2] 	71101
scalar tiger_network.node[2].core_layer 	data[2] 	71073
scalar tiger_network.node[2].content_store 	p_hit[2] 	0
scalar tiger_network.node[2].content_store 	hits[2] 	0
scalar tiger_network.node[2].content_store 	misses[2] 	71101
scalar tiger_network.node[2].content_store 	decision_yes[2] 	0
scalar tiger_network.node[2].content_store 	decision_no[2] 	71073
scalar tiger_network.node[2].content_store 	decision_ratio[2] 	0
scalar tiger_network.node[3].core_layer 	interests[3] 	65029
scalar tiger_network.node[3].core_layer 	data[3] 	65003
scalar tiger_network.node[3].content_store 	p_hit[3] 	0
scalar tiger_network.node[3].content_store 	hits[3] 	0
scalar tiger_network.node[3].content_store 	misses[3] 	65029
scalar tiger_network.node[3].content_store 	decision_yes[3] 	0
scalar tiger_network.node[3].content_store 	decision_no[3] 	65003
scalar tiger_network.node[3].content_store 	decision_ratio[3] 	0
scalar tiger_network.node[4].core_layer 	interests[4] 	50529
scalar tiger_network.node[4].core_layer 	repo_load[4] 	14514
scalar tiger_network.node[4].core_layer 	data[4] 	36006
scalar tiger_network.node[4].content_store 	p_hit[4] 	0
scalar tiger_network.node[4].content_store 	hits[4] 	0
scalar tiger_network.node[4].content_store 	misses[4] 	50529
scalar tiger_network.node[4].content_store 	decision_yes[4] 	0
scalar tiger_network.node[4].content_store 	decision_no[4] 	50520
scalar tiger_network.node[4].content_store 	decision_ratio[4] 	0
scalar tiger_network.node[5].core_layer 	interests[5] 	42868
scalar tiger_network.node[5].core_layer 	repo_load[5] 	30927
scalar tiger_network.node[5].core_layer 	data[5] 	11941
scalar tiger_network.node[5].content_store 	p_hit[5] 	0
scalar tiger_network.node[5].content_store 	hits[5] 	0
scalar tiger_network.node[5].content_store 	misses[5] 	42868
scalar tiger_network.node[5].content_store 	decision_yes[5] 	0
scalar tiger_network.node[5].content_store 	decision_no[5] 	42868
scalar tiger_network.node[5].content_store 	decision_ratio[5] 	0
scalar tiger_network.node[6].core_layer 	interests[6] 	31176
scalar tiger_network.node[6].core_layer 	data[6] 	31176
scalar tiger_network.node[6].content_store 	p_hit[6] 	0
scalar tiger_network.node[6].content_store 	hits[6] 	0
scalar tiger_network.node[6].content_store 	misses[6] 	31176
scalar tiger_network.node[6].content_store 	decision_yes[6] 	0
scalar tiger_network.node[6].content_store 	decision_no[6] 	31176
scalar tiger_network.node[6].content_store 	decision_ratio[6] 	0
scalar tiger_network.node[7].core_layer 	interests[7] 	33541
scalar tiger_network.node[7].core_layer 	data[7] 	33524
scalar tiger_network.node[7].content_store 	p_hit[7] 	0
scalar tiger_network.node[7].content_store 	hits[7] 	0
scalar tiger_network.node[7].content_store 	misses[7] 	33541
scalar tiger_network.node[7].content_store 	decision_yes[7] 	0
scalar tiger_network.node[7].content_store 	decision_no[7] 	33524
scalar tiger_network.node[7].content_store 	decision_ratio[7] 	0
scalar tiger_network.node[8].core_layer 	interests[8] 	57344
scalar tiger_network.node[8].core_layer 	repo_load[8] 	18854
scalar tiger_network.node[8].core_layer 	data[8] 	38476
scalar tiger_network.node[8].content_store 	p_hit[8] 	0
scalar tiger_network.node[8].content_store 	hits[8] 	0
scalar tiger_network.node[8].content_store 	misses[8] 	57344
scalar tiger_network.node[8].content_store 	decision_yes[8] 	0
scalar tiger_network.node[8].content_store 	decision_no[8] 	57330
scalar tiger_network.node[8].content_store 	decision_ratio[8] 	0
scalar tiger_network.node[9].core_layer 	interests[9] 	29114
scalar tiger_network.node[9].core_layer 	repo_load[9] 	16345
scalar tiger_network.node[9].core_layer 	data[9] 	12768
scalar tiger_network.node[9].content_store 	p_hit[9] 	0
scalar tiger_network.node[9].content_store 	hits[9] 	0
scalar tiger_network.node[9].content_store 	misses[9] 	29114
scalar tiger_network.node[9].content_store 	decision_yes[9] 	0
scalar tiger_network.node[9].content_store 	decision_no[9] 	29113
scalar tiger_network.node[9].content_store 	decision_ratio[9] 	0
scalar tiger_network.node[10].core_layer 	interests[10] 	37503
scalar tiger_network.node[10].core_layer 	repo_load[10] 	17764
scalar tiger_network.node[10].core_layer 	data[10] 	19736
scalar tiger_network.node[10].content_store 	p_hit[10] 	0
scalar tiger_network.node[10].content_store 	hits[10] 	0
scalar tiger_network.node[10].content_store 	misses[10] 	37503
scalar tiger_network.node[10].content_store 	decision_yes[10] 	0
scalar tiger_network.node[10].content_store 	decision_no[10] 	37500
scalar tiger_network.node[10].content_store 	decision_ratio[10] 	0
scalar tiger_network.node[11].core_layer 	interests[11] 	37321
scalar tiger_network.node[11].core_layer 	repo_load[11] 	15138
scalar tiger_network.node[11].core_layer 	data[11] 	22180
scalar tiger_network.node[11].content_store 	p_hit[11] 	0
scalar tiger_network.node[11].content_store 	hits[11] 	0
scalar tiger_network.node[11].content_store 	misses[11] 	37321
scalar tiger_network.node[11].content_store 	decision_yes[11] 	0
scalar tiger_network.node[11].content_store 	decision_no[11] 	37318
scalar tiger_network.node[11].content_store 	decision_ratio[11] 	0
scalar tiger_network.node[12].core_layer 	interests[12] 	48809
scalar tiger_network.node[12].core_layer 	repo_load[12] 	16491
scalar tiger_network.node[12].core_layer 	data[12] 	32318
scalar tiger_network.node[12].content_store 	p_hit[12] 	0
scalar tiger_network.node[12].content_store 	hits[12] 	0
scalar tiger_network.node[12].content_store 	misses[12] 	48809
scalar tiger_network.node[12].content_store 	decision_yes[12] 	0
scalar tiger_network.node[12].content_store 	decision_no[12] 	48809
scalar tiger_network.node[12].content_store 	decision_ratio[12] 	0
scalar tiger_network.node[13].core_layer 	interests[13] 	34182
scalar tiger_network.node[13].core_layer 	repo_load[13] 	16487
scalar tiger_network.node[13].core_layer 	data[13] 	17693
scalar tiger_network.node[13].content_store 	p_hit[13] 	0
scalar tiger_network.node[13].content_store 	hits[13] 	0
scalar tiger_network.node[13].content_store 	misses[13] 	34182
scalar tiger_network.node[13].content_store 	decision_yes[13] 	0
scalar tiger_network.node[13].content_store 	decision_no[13] 	34180
scalar tiger_network.node[13].content_store 	decision_ratio[13] 	0
scalar tiger_network.node[14].core_layer 	interests[14] 	31261
scalar tiger_network.node[14].core_layer 	repo_load[14] 	16385
scalar tiger_network.node[14].core_layer 	data[14] 	14875
scalar tiger_network.node[14].content_store 	p_hit[14] 	0
scalar tiger_network.node[14].content_store 	hits[14] 	0
scalar tiger_network.node[14].content_store 	misses[14] 	31261
scalar tiger_network.node[14].content_store 	decision_yes[14] 	0
scalar tiger_network.node[14].content_store 	decision_no[14] 	31260
scalar tiger_network.node[14].content_store 	decision_ratio[14] 	0
scalar tiger_network.node[15].core_layer 	interests[15] 	31490
scalar tiger_network.node[15].core_layer 	repo_load[15] 	15122
scalar tiger_network.node[15].core_layer 	data[15] 	16368
scalar tiger_network.node[15].content_store 	p_hit[15] 	0
scalar tiger_network.node[15].content_store 	hits[15] 	0
scalar tiger_network.node[15].content_store 	misses[15] 	31490
scalar tiger_network.node[15].content_store 	decision_yes[15] 	0
scalar tiger_network.node[15].content_store 	decision_no[15] 	31490
scalar tiger_network.node[15].content_store 	decision_ratio[15] 	0
scalar tiger_network.node[16].core_layer 	interests[16] 	35172
scalar tiger_network.node[16].core_layer 	repo_load[16] 	13227
scalar tiger_network.node[16].core_layer 	data[16] 	21944
scalar tiger_network.node[16].content_store 	p_hit[16] 	0
scalar tiger_network.node[16].content_store 	hits[16] 	0
scalar tiger_network.node[16].content_store 	misses[16] 	35172
scalar tiger_network.node[16].content_store 	decision_yes[16] 	0
scalar tiger_network.node[16].content_store 	decision_no[16] 	35171
scalar tiger_network.node[16].content_store 	decision_ratio[16] 	0
scalar tiger_network.node[17].core_layer 	interests[17] 	53495
scalar tiger_network.node[17].core_layer 	repo_load[17] 	12740
scalar tiger_network.node[17].core_layer 	data[17] 	40752
scalar tiger_network.node[17].content_store 	p_hit[17] 	0
scalar tiger_network.node[17].content_store 	hits[17] 	0
scalar tiger_network.node[17].content_store 	misses[17] 	53495
scalar tiger_network.node[17].content_store 	decision_yes[17] 	0
scalar tiger_network.node[17].content_store 	decision_no[17] 	53492
scalar tiger_network.node[17].content_store 	decision_ratio[17] 	0
scalar tiger_network.node[18].core_layer 	interests[18] 	59338
scalar tiger_network.node[18].core_layer 	repo_load[18] 	14125
scalar tiger_network.node[18].core_layer 	data[18] 	45205
scalar tiger_network.node[18].content_store 	p_hit[18] 	0
scalar tiger_network.node[18].content_store 	hits[18] 	0
scalar tiger_network.node[18].content_store 	misses[18] 	59338
scalar tiger_network.node[18].content_store 	decision_yes[18] 	0
scalar tiger_network.node[18].content_store 	decision_no[18] 	59330
scalar tiger_network.node[18].content_store 	decision_ratio[18] 	0
scalar tiger_network.node[19].core_layer 	interests[19] 	36983
scalar tiger_network.node[19].core_layer 	repo_load[19] 	18768
scalar tiger_network.node[19].core_layer 	data[19] 	18214
scalar tiger_network.node[19].content_store 	p_hit[19] 	0
scalar tiger_network.node[19].content_store 	hits[19] 	0
scalar tiger_network.node[19].content_store 	misses[19] 	36983
scalar tiger_network.node[19].content_store 	decision_yes[19] 	0
scalar tiger_network.node[19].content_store 	decision_no[19] 	36982
scalar tiger_network.node[19].content_store 	decision_ratio[19] 	0
scalar tiger_network.node[20].core_layer 	interests[20] 	16282
scalar tiger_network.node[20].core_layer 	data[20] 	16282
scalar tiger_network.node[20].content_store 	p_hit[20] 	0
scalar tiger_network.node[20].content_store 	hits[20] 	0
scalar tiger_network.node[20].content_store 	misses[20] 	16282
scalar tiger_network.node[20].content_store 	decision_yes[20] 	0
scalar tiger_network.node[20].content_store 	decision_no[20] 	16282
scalar tiger_network.node[20].content_store 	decision_ratio[20] 	0
scalar tiger_network.node[21].core_layer 	interests[21] 	20946
scalar tiger_network.node[21].core_layer 	data[21] 	20944
scalar tiger_network.node[21].content_store 	p_hit[21] 	0
scalar tiger_network.node[21].content_store 	hits[21] 	0
scalar tiger_network.node[21].content_store 	misses[21] 	20946
scalar tiger_network.node[21].content_store 	decision_yes[21] 	0
scalar tiger_network.node[21].content_store 	decision_no[21] 	20944
scalar tiger_network.node[21].content_store 	decision_ratio[21] 	0
scalar tiger_network.client[0] 	hdistance[0] 	3.2508154219286
scalar tiger_network.client[0] 	downloads[0] 	11957
scalar tiger_network.client[0] 	avg_time[0] 	0.000673935538
scalar tiger_network.client[1] 	hdistance[1] 	3.5876169191292
scalar tiger_network.client[1] 	downloads[1] 	12081
scalar tiger_network.client[1] 	avg_time[1] 	0.001252992783
scalar tiger_network.client[2] 	hdistance[2] 	3.2196117637257
scalar tiger_network.client[2] 	downloads[2] 	12003
scalar tiger_network.client[2] 	avg_time[2] 	0.001217733486
scalar tiger_network.client[3] 	hdistance[3] 	3.3965928730146
scalar tiger_network.client[3] 	downloads[3] 	12151
scalar tiger_network.client[3] 	avg_time[3] 	0.001295501995
scalar tiger_network.client[4] 	hdistance[4] 	3.5382372542486
scalar tiger_network.client[4] 	downloads[4] 	12004
scalar tiger_network.client[4] 	avg_time[4] 	0.001355241214
scalar tiger_network.client[5] 	hdistance[5] 	3.6655031995346
scalar tiger_network.client[5] 	downloads[5] 	12033
scalar tiger_network.client[5] 	avg_time[5] 	0.001330437706
scalar tiger_network.client[6] 	hdistance[6] 	3.5660251046025
scalar tiger_network.client[6] 	downloads[6] 	11950
scalar tiger_network.client[6] 	avg_time[6] 	0.000888811635
scalar tiger_network.client[7] 	hdistance[7] 	3.6533750105601
scalar tiger_network.client[7] 	downloads[7] 	11837
scalar tiger_network.client[7] 	avg_time[7] 	0.00105271795
scalar tiger_network.client[8] 	hdistance[8] 	3.5825813395149
scalar tiger_network.client[8] 	downloads[8] 	12079
scalar tiger_network.client[8] 	avg_time[8] 	0.00110405728
scalar tiger_network.client[9] 	hdistance[9] 	3.9777814901437
scalar tiger_network.client[9] 	downloads[9] 	11972
scalar tiger_network.client[9] 	avg_time[9] 	0.001053130541
scalar tiger_network.client[10] 	hdistance[10] 	3.8192800788955
scalar tiger_network.client[10] 	downloads[10] 	12168
scalar tiger_network.client[10] 	avg_time[10] 	0.001130995784
scalar tiger_network.client[11] 	hdistance[11] 	3.4455787913716
scalar tiger_network.client[11] 	downloads[11] 	12146
scalar tiger_network.client[11] 	avg_time[11] 	0.000587188629
scalar tiger_network.client[12] 	hdistance[12] 	3.3336396291037
scalar tiger_network.client[12] 	downloads[12] 	11971
scalar tiger_network.client[12] 	avg_time[12] 	0.001023777128
scalar tiger_network.client[13] 	hdistance[13] 	3.5709819165117
scalar tiger_network.client[13] 	downloads[13] 	11834
scalar tiger_network.client[13] 	avg_time[13] 	0.00110969732
scalar tiger_network.client[14] 	hdistance[14] 	3.788326009452
scalar tiger_network.client[14] 	downloads[14] 	12061
scalar tiger_network.client[14] 	avg_time[14] 	0.00106991104
scalar tiger_network.client[15] 	hdistance[15] 	3.7497734201203
scalar tiger_network.client[15] 	downloads[15] 	12137
scalar tiger_network.client[15] 	avg_time[15] 	0.000903948557
scalar tiger_network.client[16] 	hdistance[16] 	3.5377468060395
scalar tiger_network.client[16] 	downloads[16] 	12054
scalar tiger_network.client[16] 	avg_time[16] 	0.000806320409
scalar tiger_network.client[17] 	hdistance[17] 	3.3855611863421
scalar tiger_network.client[17] 	downloads[17] 	12037
scalar tiger_network.client[17] 	avg_time[17] 	0.000939854126
scalar tiger_network.client[18] 	hdistance[18] 	3.2996848042468
scalar tiger_network.client[18] 	downloads[18] 	12056
scalar tiger_network.client[18] 	avg_time[18] 	0.000660454915
scalar tiger_network.client[19] 	hdistance[19] 	3.3974674938387
scalar tiger_network.client[19] 	downloads[19] 	11767
scalar tiger_network.client[19] 	avg_time[19] 	0.000403376066
scalar tiger_network.client[20] 	hdistance[20] 	3.8889996676637
scalar tiger_network.client[20] 	downloads[20] 	12036
scalar tiger_network.client[20] 	avg_time[20] 	0.000978135759
scalar tiger_network.client[21] 	hdistance[21] 	3.8985640340624
scalar tiger_network.client[21] 	downloads[21] 	11978
scalar tiger_network.client[21] 	avg_time[21] 	0.000937422423
