version 2
run General-14-20160826-13:43:00-5712
attr D never
attr F nrr
attr R lru
attr a 0.9
attr configname General
attr datetime 20160826-13:43:00
attr experiment General
attr inifile hw5115/scenario_C/omnetp.ini
attr iterationvars "$net=tiger, $rep=5, $a=0.9, $F=nrr, $D=never, $R=lru, $window=60, $variance=0.05, $mytime=600"
attr iterationvars2 "$net=tiger, $rep=5, $a=0.9, $F=nrr, $D=never, $R=lru, $window=60, $variance=0.05, $mytime=600, $repetition=0"
attr measurement "$net=tiger, $rep=5, $a=0.9, $F=nrr, $D=never, $R=lru, $window=60, $variance=0.05, $mytime=600"
attr mytime 600
attr net tiger
attr network networks.${net=geant,tiger}_network
attr processid 5712
attr rep 5
attr repetition 0
attr replication #0
attr resultdir results
attr runnumber 14
attr seedset 5
attr variance 0.05
attr window 60

scalar . 	a 	0.9
scalar . 	mytime 	600
scalar . 	rep 	5
scalar . 	variance 	0.05
scalar . 	window 	60
scalar tiger_network.content_distribution 	repo-0 	9
scalar tiger_network.content_distribution 	repo-1 	14
scalar tiger_network.content_distribution 	repo-2 	5
scalar tiger_network.content_distribution 	repo-3 	1
scalar tiger_network.content_distribution 	repo-4 	4
scalar tiger_network.content_distribution 	repo-5 	0
scalar tiger_network.content_distribution 	repo-6 	16
scalar tiger_network.content_distribution 	repo-7 	18
scalar tiger_network.content_distribution 	repo-8 	20
scalar tiger_network.content_distribution 	repo-9 	10
scalar tiger_network.content_distribution 	repo-10 	2
scalar tiger_network.content_distribution 	repo-11 	13
scalar tiger_network.content_distribution 	repo-12 	12
scalar tiger_network.content_distribution 	repo-13 	19
scalar tiger_network.content_distribution 	repo-14 	8
scalar tiger_network.content_distribution 	repo-15 	17
scalar tiger_network.content_distribution 	client-0 	21
scalar tiger_network.content_distribution 	client-1 	9
scalar tiger_network.content_distribution 	client-2 	6
scalar tiger_network.content_distribution 	client-3 	2
scalar tiger_network.content_distribution 	client-4 	14
scalar tiger_network.content_distribution 	client-5 	8
scalar tiger_network.content_distribution 	client-6 	17
scalar tiger_network.content_distribution 	client-7 	0
scalar tiger_network.content_distribution 	client-8 	19
scalar tiger_network.content_distribution 	client-9 	10
scalar tiger_network.content_distribution 	client-10 	13
scalar tiger_network.content_distribution 	client-11 	1
scalar tiger_network.content_distribution 	client-12 	3
scalar tiger_network.content_distribution 	client-13 	18
scalar tiger_network.content_distribution 	client-14 	15
scalar tiger_network.content_distribution 	client-15 	16
scalar tiger_network.content_distribution 	client-16 	12
scalar tiger_network.content_distribution 	client-17 	11
scalar tiger_network.content_distribution 	client-18 	7
scalar tiger_network.content_distribution 	client-19 	4
scalar tiger_network.content_distribution 	client-20 	5
scalar tiger_network.content_distribution 	client-21 	20
scalar tiger_network.content_distribution 	repo-0_card 	6289
scalar tiger_network.content_distribution 	repo-0_price 	0
scalar tiger_network.content_distribution 	repo-1_card 	6243
scalar tiger_network.content_distribution 	repo-1_price 	0
scalar tiger_network.content_distribution 	repo-2_card 	6284
scalar tiger_network.content_distribution 	repo-2_price 	0
scalar tiger_network.content_distribution 	repo-3_card 	6071
scalar tiger_network.content_distribution 	repo-3_price 	0
scalar tiger_network.content_distribution 	repo-4_card 	6173
scalar tiger_network.content_distribution 	repo-4_price 	0
scalar tiger_network.content_distribution 	repo-5_card 	6278
scalar tiger_network.content_distribution 	repo-5_price 	0
scalar tiger_network.content_distribution 	repo-6_card 	6354
scalar tiger_network.content_distribution 	repo-6_price 	0
scalar tiger_network.content_distribution 	repo-7_card 	6254
scalar tiger_network.content_distribution 	repo-7_price 	0
scalar tiger_network.content_distribution 	repo-8_card 	6276
scalar tiger_network.content_distribution 	repo-8_price 	0
scalar tiger_network.content_distribution 	repo-9_card 	6208
scalar tiger_network.content_distribution 	repo-9_price 	0
scalar tiger_network.content_distribution 	repo-10_card 	6278
scalar tiger_network.content_distribution 	repo-10_price 	0
scalar tiger_network.content_distribution 	repo-11_card 	6229
scalar tiger_network.content_distribution 	repo-11_price 	0
scalar tiger_network.content_distribution 	repo-12_card 	6192
scalar tiger_network.content_distribution 	repo-12_price 	0
scalar tiger_network.content_distribution 	repo-13_card 	6316
scalar tiger_network.content_distribution 	repo-13_price 	0
scalar tiger_network.content_distribution 	repo-14_card 	6239
scalar tiger_network.content_distribution 	repo-14_price 	0
scalar tiger_network.content_distribution 	repo-15_card 	6316
scalar tiger_network.content_distribution 	repo-15_price 	0
scalar tiger_network.statistics 	stabilization_time 	3.2300209573625e-316
scalar tiger_network.statistics 	p_hit 	0
scalar tiger_network.statistics 	interests 	42309.318181818
scalar tiger_network.statistics 	data 	30321.318181818
scalar tiger_network.statistics 	hdistance 	3.5305229062015
scalar tiger_network.statistics 	avg_time 	0.000986639809
scalar tiger_network.statistics 	downloads 	263715
scalar tiger_network.statistics 	total_cost 	0
scalar tiger_network.statistics 	total_replicas 	100000
scalar tiger_network.statistics 	inner_hit 	0.00027681398479419
scalar tiger_network.node[0].core_layer 	interests[0] 	58281
scalar tiger_network.node[0].core_layer 	repo_load[0] 	17533
scalar tiger_network.node[0].core_layer 	data[0] 	40743
scalar tiger_network.node[0].core_layer 	repo_int[0] 	263642
scalar tiger_network.node[0].content_store 	p_hit[0] 	0
scalar tiger_network.node[0].content_store 	hits[0] 	0
scalar tiger_network.node[0].content_store 	misses[0] 	58281
scalar tiger_network.node[0].content_store 	decision_yes[0] 	0
scalar tiger_network.node[0].content_store 	decision_no[0] 	58276
scalar tiger_network.node[0].content_store 	decision_ratio[0] 	0
scalar tiger_network.node[1].core_layer 	interests[1] 	61167
scalar tiger_network.node[1].core_layer 	repo_load[1] 	13289
scalar tiger_network.node[1].core_layer 	data[1] 	47871
scalar tiger_network.node[1].content_store 	p_hit[1] 	0
scalar tiger_network.node[1].content_store 	hits[1] 	0
scalar tiger_network.node[1].content_store 	misses[1] 	61167
scalar tiger_network.node[1].content_store 	decision_yes[1] 	0
scalar tiger_network.node[1].content_store 	decision_no[1] 	61160
scalar tiger_network.node[1].content_store 	decision_ratio[1] 	0
scalar tiger_network.node[2].core_layer 	interests[2] 	73454
scalar tiger_network.node[2].core_layer 	repo_load[2] 	12144
scalar tiger_network.node[2].core_layer 	data[2] 	61291
scalar tiger_network.node[2].content_store 	p_hit[2] 	0
scalar tiger_network.node[2].content_store 	hits[2] 	0
scalar tiger_network.node[2].content_store 	misses[2] 	73454
scalar tiger_network.node[2].content_store 	decision_yes[2] 	0
scalar tiger_network.node[2].content_store 	decision_no[2] 	73435
scalar tiger_network.node[2].content_store 	decision_ratio[2] 	0
scalar tiger_network.node[3].core_layer 	interests[3] 	58812
scalar tiger_network.node[3].core_layer 	data[3] 	58804
scalar tiger_network.node[3].content_store 	p_hit[3] 	0
scalar tiger_network.node[3].content_store 	hits[3] 	0
scalar tiger_network.node[3].content_store 	misses[3] 	58812
scalar tiger_network.node[3].content_store 	decision_yes[3] 	0
scalar tiger_network.node[3].content_store 	decision_no[3] 	58804
scalar tiger_network.node[3].content_store 	decision_ratio[3] 	0
scalar tiger_network.node[4].core_layer 	interests[4] 	54911
scalar tiger_network.node[4].core_layer 	repo_load[4] 	19381
scalar tiger_network.node[4].core_layer 	data[4] 	35528
scalar tiger_network.node[4].content_store 	p_hit[4] 	0
scalar tiger_network.node[4].content_store 	hits[4] 	0
scalar tiger_network.node[4].content_store 	misses[4] 	54911
scalar tiger_network.node[4].content_store 	decision_yes[4] 	0
scalar tiger_network.node[4].content_store 	decision_no[4] 	54909
scalar tiger_network.node[4].content_store 	decision_ratio[4] 	0
scalar tiger_network.node[5].core_layer 	interests[5] 	27743
scalar tiger_network.node[5].core_layer 	repo_load[5] 	14534
scalar tiger_network.node[5].core_layer 	data[5] 	13209
scalar tiger_network.node[5].content_store 	p_hit[5] 	0
scalar tiger_network.node[5].content_store 	hits[5] 	0
scalar tiger_network.node[5].content_store 	misses[5] 	27743
scalar tiger_network.node[5].content_store 	decision_yes[5] 	0
scalar tiger_network.node[5].content_store 	decision_no[5] 	27743
scalar tiger_network.node[5].content_store 	decision_ratio[5] 	0
scalar tiger_network.node[6].core_layer 	interests[6] 	32468
scalar tiger_network.node[6].core_layer 	data[6] 	32461
scalar tiger_network.node[6].content_store 	p_hit[6] 	0
scalar tiger_network.node[6].content_store 	hits[6] 	0
scalar tiger_network.node[6].content_store 	misses[6] 	32468
scalar tiger_network.node[6].content_store 	decision_yes[6] 	0
scalar tiger_network.node[6].content_store 	decision_no[6] 	32461
scalar tiger_network.node[6].content_store 	decision_ratio[6] 	0
scalar tiger_network.node[7].core_layer 	interests[7] 	42956
scalar tiger_network.node[7].core_layer 	data[7] 	42943
scalar tiger_network.node[7].content_store 	p_hit[7] 	0
scalar tiger_network.node[7].content_store 	hits[7] 	0
scalar tiger_network.node[7].content_store 	misses[7] 	42956
scalar tiger_network.node[7].content_store 	decision_yes[7] 	0
scalar tiger_network.node[7].content_store 	decision_no[7] 	42943
scalar tiger_network.node[7].content_store 	decision_ratio[7] 	0
scalar tiger_network.node[8].core_layer 	interests[8] 	58717
scalar tiger_network.node[8].core_layer 	repo_load[8] 	17554
scalar tiger_network.node[8].core_layer 	data[8] 	41156
scalar tiger_network.node[8].content_store 	p_hit[8] 	0
scalar tiger_network.node[8].content_store 	hits[8] 	0
scalar tiger_network.node[8].content_store 	misses[8] 	58717
scalar tiger_network.node[8].content_store 	decision_yes[8] 	0
scalar tiger_network.node[8].content_store 	decision_no[8] 	58710
scalar tiger_network.node[8].content_store 	decision_ratio[8] 	0
scalar tiger_network.node[9].core_layer 	interests[9] 	26150
scalar tiger_network.node[9].core_layer 	repo_load[9] 	13529
scalar tiger_network.node[9].core_layer 	data[9] 	12621
scalar tiger_network.node[9].content_store 	p_hit[9] 	0
scalar tiger_network.node[9].content_store 	hits[9] 	0
scalar tiger_network.node[9].content_store 	misses[9] 	26150
scalar tiger_network.node[9].content_store 	decision_yes[9] 	0
scalar tiger_network.node[9].content_store 	decision_no[9] 	26150
scalar tiger_network.node[9].content_store 	decision_ratio[9] 	0
scalar tiger_network.node[10].core_layer 	interests[10] 	32225
scalar tiger_network.node[10].core_layer 	repo_load[10] 	14728
scalar tiger_network.node[10].core_layer 	data[10] 	17495
scalar tiger_network.node[10].content_store 	p_hit[10] 	0
scalar tiger_network.node[10].content_store 	hits[10] 	0
scalar tiger_network.node[10].content_store 	misses[10] 	32225
scalar tiger_network.node[10].content_store 	decision_yes[10] 	0
scalar tiger_network.node[10].content_store 	decision_no[10] 	32223
scalar tiger_network.node[10].content_store 	decision_ratio[10] 	0
scalar tiger_network.node[11].core_layer 	interests[11] 	22755
scalar tiger_network.node[11].core_layer 	data[11] 	22754
scalar tiger_network.node[11].content_store 	p_hit[11] 	0
scalar tiger_network.node[11].content_store 	hits[11] 	0
scalar tiger_network.node[11].content_store 	misses[11] 	22755
scalar tiger_network.node[11].content_store 	decision_yes[11] 	0
scalar tiger_network.node[11].content_store 	decision_no[11] 	22754
scalar tiger_network.node[11].content_store 	decision_ratio[11] 	0
scalar tiger_network.node[12].core_layer 	interests[12] 	49029
scalar tiger_network.node[12].core_layer 	repo_load[12] 	17987
scalar tiger_network.node[12].core_layer 	data[12] 	31038
scalar tiger_network.node[12].content_store 	p_hit[12] 	0
scalar tiger_network.node[12].content_store 	hits[12] 	0
scalar tiger_network.node[12].content_store 	misses[12] 	49029
scalar tiger_network.node[12].content_store 	decision_yes[12] 	0
scalar tiger_network.node[12].content_store 	decision_no[12] 	49025
scalar tiger_network.node[12].content_store 	decision_ratio[12] 	0
scalar tiger_network.node[13].core_layer 	interests[13] 	34219
scalar tiger_network.node[13].core_layer 	repo_load[13] 	17470
scalar tiger_network.node[13].core_layer 	data[13] 	16748
scalar tiger_network.node[13].content_store 	p_hit[13] 	0
scalar tiger_network.node[13].content_store 	hits[13] 	0
scalar tiger_network.node[13].content_store 	misses[13] 	34219
scalar tiger_network.node[13].content_store 	decision_yes[13] 	0
scalar tiger_network.node[13].content_store 	decision_no[13] 	34218
scalar tiger_network.node[13].content_store 	decision_ratio[13] 	0
scalar tiger_network.node[14].core_layer 	interests[14] 	29916
scalar tiger_network.node[14].core_layer 	repo_load[14] 	15612
scalar tiger_network.node[14].core_layer 	data[14] 	14304
scalar tiger_network.node[14].content_store 	p_hit[14] 	0
scalar tiger_network.node[14].content_store 	hits[14] 	0
scalar tiger_network.node[14].content_store 	misses[14] 	29916
scalar tiger_network.node[14].content_store 	decision_yes[14] 	0
scalar tiger_network.node[14].content_store 	decision_no[14] 	29916
scalar tiger_network.node[14].content_store 	decision_ratio[14] 	0
scalar tiger_network.node[15].core_layer 	interests[15] 	18281
scalar tiger_network.node[15].core_layer 	data[15] 	18276
scalar tiger_network.node[15].content_store 	p_hit[15] 	0
scalar tiger_network.node[15].content_store 	hits[15] 	0
scalar tiger_network.node[15].content_store 	misses[15] 	18281
scalar tiger_network.node[15].content_store 	decision_yes[15] 	0
scalar tiger_network.node[15].content_store 	decision_no[15] 	18276
scalar tiger_network.node[15].content_store 	decision_ratio[15] 	0
scalar tiger_network.node[16].core_layer 	interests[16] 	35284
scalar tiger_network.node[16].core_layer 	repo_load[16] 	16797
scalar tiger_network.node[16].core_layer 	data[16] 	18482
scalar tiger_network.node[16].content_store 	p_hit[16] 	0
scalar tiger_network.node[16].content_store 	hits[16] 	0
scalar tiger_network.node[16].content_store 	misses[16] 	35284
scalar tiger_network.node[16].content_store 	decision_yes[16] 	0
scalar tiger_network.node[16].content_store 	decision_no[16] 	35279
scalar tiger_network.node[16].content_store 	decision_ratio[16] 	0
scalar tiger_network.node[17].core_layer 	interests[17] 	58285
scalar tiger_network.node[17].core_layer 	repo_load[17] 	21614
scalar tiger_network.node[17].core_layer 	data[17] 	36669
scalar tiger_network.node[17].content_store 	p_hit[17] 	0
scalar tiger_network.node[17].content_store 	hits[17] 	0
scalar tiger_network.node[17].content_store 	misses[17] 	58285
scalar tiger_network.node[17].content_store 	decision_yes[17] 	0
scalar tiger_network.node[17].content_store 	decision_no[17] 	58283
scalar tiger_network.node[17].content_store 	decision_ratio[17] 	0
scalar tiger_network.node[18].core_layer 	interests[18] 	63808
scalar tiger_network.node[18].core_layer 	repo_load[18] 	13560
scalar tiger_network.node[18].core_layer 	data[18] 	50246
scalar tiger_network.node[18].content_store 	p_hit[18] 	0
scalar tiger_network.node[18].content_store 	hits[18] 	0
scalar tiger_network.node[18].content_store 	misses[18] 	63808
scalar tiger_network.node[18].content_store 	decision_yes[18] 	0
scalar tiger_network.node[18].content_store 	decision_no[18] 	63806
scalar tiger_network.node[18].content_store 	decision_ratio[18] 	0
scalar tiger_network.node[19].core_layer 	interests[19] 	31696
scalar tiger_network.node[19].core_layer 	repo_load[19] 	11500
scalar tiger_network.node[19].core_layer 	data[19] 	20195
scalar tiger_network.node[19].content_store 	p_hit[19] 	0
scalar tiger_network.node[19].content_store 	hits[19] 	0
scalar tiger_network.node[19].content_store 	misses[19] 	31696
scalar tiger_network.node[19].content_store 	decision_yes[19] 	0
scalar tiger_network.node[19].content_store 	decision_no[19] 	31695
scalar tiger_network.node[19].content_store 	decision_ratio[19] 	0
scalar tiger_network.node[20].core_layer 	interests[20] 	40793
scalar tiger_network.node[20].core_layer 	repo_load[20] 	26410
scalar tiger_network.node[20].core_layer 	data[20] 	14381
scalar tiger_network.node[20].content_store 	p_hit[20] 	0
scalar tiger_network.node[20].content_store 	hits[20] 	0
scalar tiger_network.node[20].content_store 	misses[20] 	40793
scalar tiger_network.node[20].content_store 	decision_yes[20] 	0
scalar tiger_network.node[20].content_store 	decision_no[20] 	40791
scalar tiger_network.node[20].content_store 	decision_ratio[20] 	0
scalar tiger_network.node[21].core_layer 	interests[21] 	19855
scalar tiger_network.node[21].core_layer 	data[21] 	19854
scalar tiger_network.node[21].content_store 	p_hit[21] 	0
scalar tiger_network.node[21].content_store 	hits[21] 	0
scalar tiger_network.node[21].content_store 	misses[21] 	19855
scalar tiger_network.node[21].content_store 	decision_yes[21] 	0
scalar tiger_network.node[21].content_store 	decision_no[21] 	19854
scalar tiger_network.node[21].content_store 	decision_ratio[21] 	0
scalar tiger_network.client[0] 	hdistance[0] 	3.1249053110008
scalar tiger_network.client[0] 	downloads[0] 	11881
scalar tiger_network.client[0] 	avg_time[0] 	0.000593937999
scalar tiger_network.client[1] 	hdistance[1] 	3.5463033055766
scalar tiger_network.client[1] 	downloads[1] 	11889
scalar tiger_network.client[1] 	avg_time[1] 	0.001259271028
scalar tiger_network.client[2] 	hdistance[2] 	3.2742998352553
scalar tiger_network.client[2] 	downloads[2] 	12140
scalar tiger_network.client[2] 	avg_time[2] 	0.001258735323
scalar tiger_network.client[3] 	hdistance[3] 	3.4575163398693
scalar tiger_network.client[3] 	downloads[3] 	11934
scalar tiger_network.client[3] 	avg_time[3] 	0.001318343529
scalar tiger_network.client[4] 	hdistance[4] 	3.4502894538132
scalar tiger_network.client[4] 	downloads[4] 	11919
scalar tiger_network.client[4] 	avg_time[4] 	0.001261066664
scalar tiger_network.client[5] 	hdistance[5] 	3.6842452752331
scalar tiger_network.client[5] 	downloads[5] 	12117
scalar tiger_network.client[5] 	avg_time[5] 	0.001439441139
scalar tiger_network.client[6] 	hdistance[6] 	3.5295010114632
scalar tiger_network.client[6] 	downloads[6] 	11864
scalar tiger_network.client[6] 	avg_time[6] 	0.000946444422
scalar tiger_network.client[7] 	hdistance[7] 	3.4521069624969
scalar tiger_network.client[7] 	downloads[7] 	12079
scalar tiger_network.client[7] 	avg_time[7] 	0.001026539742
scalar tiger_network.client[8] 	hdistance[8] 	3.488734399866
scalar tiger_network.client[8] 	downloads[8] 	11939
scalar tiger_network.client[8] 	avg_time[8] 	0.001098735407
scalar tiger_network.client[9] 	hdistance[9] 	4.0322689643521
scalar tiger_network.client[9] 	downloads[9] 	11838
scalar tiger_network.client[9] 	avg_time[9] 	0.001102970759
scalar tiger_network.client[10] 	hdistance[10] 	3.9078781776995
scalar tiger_network.client[10] 	downloads[10] 	11919
scalar tiger_network.client[10] 	avg_time[10] 	0.001106415777
scalar tiger_network.client[11] 	hdistance[11] 	3.5051529255319
scalar tiger_network.client[11] 	downloads[11] 	12032
scalar tiger_network.client[11] 	avg_time[11] 	0.000581616248
scalar tiger_network.client[12] 	hdistance[12] 	3.3092164761983
scalar tiger_network.client[12] 	downloads[12] 	12163
scalar tiger_network.client[12] 	avg_time[12] 	0.000992175449
scalar tiger_network.client[13] 	hdistance[13] 	3.6191349279107
scalar tiger_network.client[13] 	downloads[13] 	11999
scalar tiger_network.client[13] 	avg_time[13] 	0.001125020961
scalar tiger_network.client[14] 	hdistance[14] 	3.9421494542401
scalar tiger_network.client[14] 	downloads[14] 	11910
scalar tiger_network.client[14] 	avg_time[14] 	0.001108074368
scalar tiger_network.client[15] 	hdistance[15] 	3.869104665826
scalar tiger_network.client[15] 	downloads[15] 	11895
scalar tiger_network.client[15] 	avg_time[15] 	0.000961939943
scalar tiger_network.client[16] 	hdistance[16] 	3.5495383079611
scalar tiger_network.client[16] 	downloads[16] 	12021
scalar tiger_network.client[16] 	avg_time[16] 	0.000893313091
scalar tiger_network.client[17] 	hdistance[17] 	3.2756056808688
scalar tiger_network.client[17] 	downloads[17] 	11970
scalar tiger_network.client[17] 	avg_time[17] 	0.000932422665
scalar tiger_network.client[18] 	hdistance[18] 	3.1095412234043
scalar tiger_network.client[18] 	downloads[18] 	12032
scalar tiger_network.client[18] 	avg_time[18] 	0.000654271225
scalar tiger_network.client[19] 	hdistance[19] 	3.2377557866488
scalar tiger_network.client[19] 	downloads[19] 	11924
scalar tiger_network.client[19] 	avg_time[19] 	0.000426209021
scalar tiger_network.client[20] 	hdistance[20] 	3.5781017061454
scalar tiger_network.client[20] 	downloads[20] 	12074
scalar tiger_network.client[20] 	avg_time[20] 	0.000862034417
scalar tiger_network.client[21] 	hdistance[21] 	3.7281537450723
scalar tiger_network.client[21] 	downloads[21] 	12176
scalar tiger_network.client[21] 	avg_time[21] 	0.00075709663
