version 2
run General-10-20160826-13:39:59-5712
attr D never
attr F nrr
attr R lru
attr a 0.9
attr configname General
attr datetime 20160826-13:39:59
attr experiment General
attr inifile hw5115/scenario_C/omnetp.ini
attr iterationvars "$net=tiger, $rep=1, $a=0.9, $F=nrr, $D=never, $R=lru, $window=60, $variance=0.05, $mytime=600"
attr iterationvars2 "$net=tiger, $rep=1, $a=0.9, $F=nrr, $D=never, $R=lru, $window=60, $variance=0.05, $mytime=600, $repetition=0"
attr measurement "$net=tiger, $rep=1, $a=0.9, $F=nrr, $D=never, $R=lru, $window=60, $variance=0.05, $mytime=600"
attr mytime 600
attr net tiger
attr network networks.${net=geant,tiger}_network
attr processid 5712
attr rep 1
attr repetition 0
attr replication #0
attr resultdir results
attr runnumber 10
attr seedset 1
attr variance 0.05
attr window 60

scalar . 	a 	0.9
scalar . 	mytime 	600
scalar . 	rep 	1
scalar . 	variance 	0.05
scalar . 	window 	60
scalar tiger_network.content_distribution 	repo-0 	14
scalar tiger_network.content_distribution 	repo-1 	5
scalar tiger_network.content_distribution 	repo-2 	1
scalar tiger_network.content_distribution 	repo-3 	8
scalar tiger_network.content_distribution 	repo-4 	18
scalar tiger_network.content_distribution 	repo-5 	9
scalar tiger_network.content_distribution 	repo-6 	7
scalar tiger_network.content_distribution 	repo-7 	13
scalar tiger_network.content_distribution 	repo-8 	4
scalar tiger_network.content_distribution 	repo-9 	12
scalar tiger_network.content_distribution 	repo-10 	6
scalar tiger_network.content_distribution 	repo-11 	10
scalar tiger_network.content_distribution 	repo-12 	20
scalar tiger_network.content_distribution 	repo-13 	3
scalar tiger_network.content_distribution 	repo-14 	0
scalar tiger_network.content_distribution 	repo-15 	21
scalar tiger_network.content_distribution 	client-0 	21
scalar tiger_network.content_distribution 	client-1 	9
scalar tiger_network.content_distribution 	client-2 	6
scalar tiger_network.content_distribution 	client-3 	2
scalar tiger_network.content_distribution 	client-4 	14
scalar tiger_network.content_distribution 	client-5 	8
scalar tiger_network.content_distribution 	client-6 	17
scalar tiger_network.content_distribution 	client-7 	0
scalar tiger_network.content_distribution 	client-8 	19
scalar tiger_network.content_distribution 	client-9 	10
scalar tiger_network.content_distribution 	client-10 	13
scalar tiger_network.content_distribution 	client-11 	1
scalar tiger_network.content_distribution 	client-12 	3
scalar tiger_network.content_distribution 	client-13 	18
scalar tiger_network.content_distribution 	client-14 	15
scalar tiger_network.content_distribution 	client-15 	16
scalar tiger_network.content_distribution 	client-16 	12
scalar tiger_network.content_distribution 	client-17 	11
scalar tiger_network.content_distribution 	client-18 	7
scalar tiger_network.content_distribution 	client-19 	4
scalar tiger_network.content_distribution 	client-20 	5
scalar tiger_network.content_distribution 	client-21 	20
scalar tiger_network.content_distribution 	repo-0_card 	6195
scalar tiger_network.content_distribution 	repo-0_price 	0
scalar tiger_network.content_distribution 	repo-1_card 	6203
scalar tiger_network.content_distribution 	repo-1_price 	0
scalar tiger_network.content_distribution 	repo-2_card 	6203
scalar tiger_network.content_distribution 	repo-2_price 	0
scalar tiger_network.content_distribution 	repo-3_card 	6244
scalar tiger_network.content_distribution 	repo-3_price 	0
scalar tiger_network.content_distribution 	repo-4_card 	6365
scalar tiger_network.content_distribution 	repo-4_price 	0
scalar tiger_network.content_distribution 	repo-5_card 	6246
scalar tiger_network.content_distribution 	repo-5_price 	0
scalar tiger_network.content_distribution 	repo-6_card 	6167
scalar tiger_network.content_distribution 	repo-6_price 	0
scalar tiger_network.content_distribution 	repo-7_card 	6312
scalar tiger_network.content_distribution 	repo-7_price 	0
scalar tiger_network.content_distribution 	repo-8_card 	6164
scalar tiger_network.content_distribution 	repo-8_price 	0
scalar tiger_network.content_distribution 	repo-9_card 	6249
scalar tiger_network.content_distribution 	repo-9_price 	0
scalar tiger_network.content_distribution 	repo-10_card 	6284
scalar tiger_network.content_distribution 	repo-10_price 	0
scalar tiger_network.content_distribution 	repo-11_card 	6276
scalar tiger_network.content_distribution 	repo-11_price 	0
scalar tiger_network.content_distribution 	repo-12_card 	6338
scalar tiger_network.content_distribution 	repo-12_price 	0
scalar tiger_network.content_distribution 	repo-13_card 	6362
scalar tiger_network.content_distribution 	repo-13_price 	0
scalar tiger_network.content_distribution 	repo-14_card 	6276
scalar tiger_network.content_distribution 	repo-14_price 	0
scalar tiger_network.content_distribution 	repo-15_card 	6116
scalar tiger_network.content_distribution 	repo-15_price 	0
scalar tiger_network.statistics 	stabilization_time 	3.2300209573625e-316
scalar tiger_network.statistics 	p_hit 	0
scalar tiger_network.statistics 	interests 	42945.727272727
scalar tiger_network.statistics 	data 	30932.363636364
scalar tiger_network.statistics 	hdistance 	3.5759814871153
scalar tiger_network.statistics 	avg_time 	0.001038586579
scalar tiger_network.statistics 	downloads 	264280
scalar tiger_network.statistics 	total_cost 	0
scalar tiger_network.statistics 	total_replicas 	100000
scalar tiger_network.statistics 	inner_hit 	0.00035189950052974
scalar tiger_network.node[0].core_layer 	interests[0] 	51506
scalar tiger_network.node[0].core_layer 	repo_load[0] 	17675
scalar tiger_network.node[0].core_layer 	data[0] 	33823
scalar tiger_network.node[0].core_layer 	repo_int[0] 	264187
scalar tiger_network.node[0].content_store 	p_hit[0] 	0
scalar tiger_network.node[0].content_store 	hits[0] 	0
scalar tiger_network.node[0].content_store 	misses[0] 	51506
scalar tiger_network.node[0].content_store 	decision_yes[0] 	0
scalar tiger_network.node[0].content_store 	decision_no[0] 	51498
scalar tiger_network.node[0].content_store 	decision_ratio[0] 	0
scalar tiger_network.node[1].core_layer 	interests[1] 	72939
scalar tiger_network.node[1].core_layer 	repo_load[1] 	17339
scalar tiger_network.node[1].core_layer 	data[1] 	55591
scalar tiger_network.node[1].content_store 	p_hit[1] 	0
scalar tiger_network.node[1].content_store 	hits[1] 	0
scalar tiger_network.node[1].content_store 	misses[1] 	72939
scalar tiger_network.node[1].content_store 	decision_yes[1] 	0
scalar tiger_network.node[1].content_store 	decision_no[1] 	72930
scalar tiger_network.node[1].content_store 	decision_ratio[1] 	0
scalar tiger_network.node[2].core_layer 	interests[2] 	72836
scalar tiger_network.node[2].core_layer 	data[2] 	72820
scalar tiger_network.node[2].content_store 	p_hit[2] 	0
scalar tiger_network.node[2].content_store 	hits[2] 	0
scalar tiger_network.node[2].content_store 	misses[2] 	72836
scalar tiger_network.node[2].content_store 	decision_yes[2] 	0
scalar tiger_network.node[2].content_store 	decision_no[2] 	72820
scalar tiger_network.node[2].content_store 	decision_ratio[2] 	0
scalar tiger_network.node[3].core_layer 	interests[3] 	67812
scalar tiger_network.node[3].core_layer 	repo_load[3] 	16993
scalar tiger_network.node[3].core_layer 	data[3] 	50807
scalar tiger_network.node[3].content_store 	p_hit[3] 	0
scalar tiger_network.node[3].content_store 	hits[3] 	0
scalar tiger_network.node[3].content_store 	misses[3] 	67812
scalar tiger_network.node[3].content_store 	decision_yes[3] 	0
scalar tiger_network.node[3].content_store 	decision_no[3] 	67800
scalar tiger_network.node[3].content_store 	decision_ratio[3] 	0
scalar tiger_network.node[4].core_layer 	interests[4] 	48949
scalar tiger_network.node[4].core_layer 	repo_load[4] 	17049
scalar tiger_network.node[4].core_layer 	data[4] 	31896
scalar tiger_network.node[4].content_store 	p_hit[4] 	0
scalar tiger_network.node[4].content_store 	hits[4] 	0
scalar tiger_network.node[4].content_store 	misses[4] 	48949
scalar tiger_network.node[4].content_store 	decision_yes[4] 	0
scalar tiger_network.node[4].content_store 	decision_no[4] 	48945
scalar tiger_network.node[4].content_store 	decision_ratio[4] 	0
scalar tiger_network.node[5].core_layer 	interests[5] 	32072
scalar tiger_network.node[5].core_layer 	repo_load[5] 	14691
scalar tiger_network.node[5].core_layer 	data[5] 	17380
scalar tiger_network.node[5].content_store 	p_hit[5] 	0
scalar tiger_network.node[5].content_store 	hits[5] 	0
scalar tiger_network.node[5].content_store 	misses[5] 	32072
scalar tiger_network.node[5].content_store 	decision_yes[5] 	0
scalar tiger_network.node[5].content_store 	decision_no[5] 	32071
scalar tiger_network.node[5].content_store 	decision_ratio[5] 	0
scalar tiger_network.node[6].core_layer 	interests[6] 	45724
scalar tiger_network.node[6].core_layer 	repo_load[6] 	14069
scalar tiger_network.node[6].core_layer 	data[6] 	31642
scalar tiger_network.node[6].content_store 	p_hit[6] 	0
scalar tiger_network.node[6].content_store 	hits[6] 	0
scalar tiger_network.node[6].content_store 	misses[6] 	45724
scalar tiger_network.node[6].content_store 	decision_yes[6] 	0
scalar tiger_network.node[6].content_store 	decision_no[6] 	45711
scalar tiger_network.node[6].content_store 	decision_ratio[6] 	0
scalar tiger_network.node[7].core_layer 	interests[7] 	59087
scalar tiger_network.node[7].core_layer 	repo_load[7] 	20090
scalar tiger_network.node[7].core_layer 	data[7] 	38986
scalar tiger_network.node[7].content_store 	p_hit[7] 	0
scalar tiger_network.node[7].content_store 	hits[7] 	0
scalar tiger_network.node[7].content_store 	misses[7] 	59087
scalar tiger_network.node[7].content_store 	decision_yes[7] 	0
scalar tiger_network.node[7].content_store 	decision_no[7] 	59076
scalar tiger_network.node[7].content_store 	decision_ratio[7] 	0
scalar tiger_network.node[8].core_layer 	interests[8] 	74937
scalar tiger_network.node[8].core_layer 	repo_load[8] 	15062
scalar tiger_network.node[8].core_layer 	data[8] 	59855
scalar tiger_network.node[8].content_store 	p_hit[8] 	0
scalar tiger_network.node[8].content_store 	hits[8] 	0
scalar tiger_network.node[8].content_store 	misses[8] 	74937
scalar tiger_network.node[8].content_store 	decision_yes[8] 	0
scalar tiger_network.node[8].content_store 	decision_no[8] 	74917
scalar tiger_network.node[8].content_store 	decision_ratio[8] 	0
scalar tiger_network.node[9].core_layer 	interests[9] 	39460
scalar tiger_network.node[9].core_layer 	repo_load[9] 	26282
scalar tiger_network.node[9].core_layer 	data[9] 	13178
scalar tiger_network.node[9].content_store 	p_hit[9] 	0
scalar tiger_network.node[9].content_store 	hits[9] 	0
scalar tiger_network.node[9].content_store 	misses[9] 	39460
scalar tiger_network.node[9].content_store 	decision_yes[9] 	0
scalar tiger_network.node[9].content_store 	decision_no[9] 	39460
scalar tiger_network.node[9].content_store 	decision_ratio[9] 	0
scalar tiger_network.node[10].core_layer 	interests[10] 	34702
scalar tiger_network.node[10].core_layer 	repo_load[10] 	13406
scalar tiger_network.node[10].core_layer 	data[10] 	21296
scalar tiger_network.node[10].content_store 	p_hit[10] 	0
scalar tiger_network.node[10].content_store 	hits[10] 	0
scalar tiger_network.node[10].content_store 	misses[10] 	34702
scalar tiger_network.node[10].content_store 	decision_yes[10] 	0
scalar tiger_network.node[10].content_store 	decision_no[10] 	34702
scalar tiger_network.node[10].content_store 	decision_ratio[10] 	0
scalar tiger_network.node[11].core_layer 	interests[11] 	22599
scalar tiger_network.node[11].core_layer 	data[11] 	22599
scalar tiger_network.node[11].content_store 	p_hit[11] 	0
scalar tiger_network.node[11].content_store 	hits[11] 	0
scalar tiger_network.node[11].content_store 	misses[11] 	22599
scalar tiger_network.node[11].content_store 	decision_yes[11] 	0
scalar tiger_network.node[11].content_store 	decision_no[11] 	22599
scalar tiger_network.node[11].content_store 	decision_ratio[11] 	0
scalar tiger_network.node[12].core_layer 	interests[12] 	48389
scalar tiger_network.node[12].core_layer 	repo_load[12] 	20878
scalar tiger_network.node[12].core_layer 	data[12] 	27510
scalar tiger_network.node[12].content_store 	p_hit[12] 	0
scalar tiger_network.node[12].content_store 	hits[12] 	0
scalar tiger_network.node[12].content_store 	misses[12] 	48389
scalar tiger_network.node[12].content_store 	decision_yes[12] 	0
scalar tiger_network.node[12].content_store 	decision_no[12] 	48388
scalar tiger_network.node[12].content_store 	decision_ratio[12] 	0
scalar tiger_network.node[13].core_layer 	interests[13] 	32014
scalar tiger_network.node[13].core_layer 	repo_load[13] 	15541
scalar tiger_network.node[13].core_layer 	data[13] 	16471
scalar tiger_network.node[13].content_store 	p_hit[13] 	0
scalar tiger_network.node[13].content_store 	hits[13] 	0
scalar tiger_network.node[13].content_store 	misses[13] 	32014
scalar tiger_network.node[13].content_store 	decision_yes[13] 	0
scalar tiger_network.node[13].content_store 	decision_no[13] 	32012
scalar tiger_network.node[13].content_store 	decision_ratio[13] 	0
scalar tiger_network.node[14].core_layer 	interests[14] 	29265
scalar tiger_network.node[14].core_layer 	repo_load[14] 	15190
scalar tiger_network.node[14].core_layer 	data[14] 	14075
scalar tiger_network.node[14].content_store 	p_hit[14] 	0
scalar tiger_network.node[14].content_store 	hits[14] 	0
scalar tiger_network.node[14].content_store 	misses[14] 	29265
scalar tiger_network.node[14].content_store 	decision_yes[14] 	0
scalar tiger_network.node[14].content_store 	decision_no[14] 	29265
scalar tiger_network.node[14].content_store 	decision_ratio[14] 	0
scalar tiger_network.node[15].core_layer 	interests[15] 	18109
scalar tiger_network.node[15].core_layer 	data[15] 	18108
scalar tiger_network.node[15].content_store 	p_hit[15] 	0
scalar tiger_network.node[15].content_store 	hits[15] 	0
scalar tiger_network.node[15].content_store 	misses[15] 	18109
scalar tiger_network.node[15].content_store 	decision_yes[15] 	0
scalar tiger_network.node[15].content_store 	decision_no[15] 	18108
scalar tiger_network.node[15].content_store 	decision_ratio[15] 	0
scalar tiger_network.node[16].core_layer 	interests[16] 	20345
scalar tiger_network.node[16].core_layer 	data[16] 	20343
scalar tiger_network.node[16].content_store 	p_hit[16] 	0
scalar tiger_network.node[16].content_store 	hits[16] 	0
scalar tiger_network.node[16].content_store 	misses[16] 	20345
scalar tiger_network.node[16].content_store 	decision_yes[16] 	0
scalar tiger_network.node[16].content_store 	decision_no[16] 	20343
scalar tiger_network.node[16].content_store 	decision_ratio[16] 	0
scalar tiger_network.node[17].core_layer 	interests[17] 	35333
scalar tiger_network.node[17].core_layer 	data[17] 	35330
scalar tiger_network.node[17].content_store 	p_hit[17] 	0
scalar tiger_network.node[17].content_store 	hits[17] 	0
scalar tiger_network.node[17].content_store 	misses[17] 	35333
scalar tiger_network.node[17].content_store 	decision_yes[17] 	0
scalar tiger_network.node[17].content_store 	decision_no[17] 	35330
scalar tiger_network.node[17].content_store 	decision_ratio[17] 	0
scalar tiger_network.node[18].core_layer 	interests[18] 	51805
scalar tiger_network.node[18].core_layer 	repo_load[18] 	12618
scalar tiger_network.node[18].core_layer 	data[18] 	39183
scalar tiger_network.node[18].content_store 	p_hit[18] 	0
scalar tiger_network.node[18].content_store 	hits[18] 	0
scalar tiger_network.node[18].content_store 	misses[18] 	51805
scalar tiger_network.node[18].content_store 	decision_yes[18] 	0
scalar tiger_network.node[18].content_store 	decision_no[18] 	51801
scalar tiger_network.node[18].content_store 	decision_ratio[18] 	0
scalar tiger_network.node[19].core_layer 	interests[19] 	23164
scalar tiger_network.node[19].core_layer 	data[19] 	23164
scalar tiger_network.node[19].content_store 	p_hit[19] 	0
scalar tiger_network.node[19].content_store 	hits[19] 	0
scalar tiger_network.node[19].content_store 	misses[19] 	23164
scalar tiger_network.node[19].content_store 	decision_yes[19] 	0
scalar tiger_network.node[19].content_store 	decision_no[19] 	23164
scalar tiger_network.node[19].content_store 	decision_ratio[19] 	0
scalar tiger_network.node[20].core_layer 	interests[20] 	31400
scalar tiger_network.node[20].core_layer 	repo_load[20] 	13542
scalar tiger_network.node[20].core_layer 	data[20] 	17858
scalar tiger_network.node[20].content_store 	p_hit[20] 	0
scalar tiger_network.node[20].content_store 	hits[20] 	0
scalar tiger_network.node[20].content_store 	misses[20] 	31400
scalar tiger_network.node[20].content_store 	decision_yes[20] 	0
scalar tiger_network.node[20].content_store 	decision_no[20] 	31400
scalar tiger_network.node[20].content_store 	decision_ratio[20] 	0
scalar tiger_network.node[21].core_layer 	interests[21] 	32359
scalar tiger_network.node[21].core_layer 	repo_load[21] 	13762
scalar tiger_network.node[21].core_layer 	data[21] 	18597
scalar tiger_network.node[21].content_store 	p_hit[21] 	0
scalar tiger_network.node[21].content_store 	hits[21] 	0
scalar tiger_network.node[21].content_store 	misses[21] 	32359
scalar tiger_network.node[21].content_store 	decision_yes[21] 	0
scalar tiger_network.node[21].content_store 	decision_no[21] 	32359
scalar tiger_network.node[21].content_store 	decision_ratio[21] 	0
scalar tiger_network.client[0] 	hdistance[0] 	3.327259111333
scalar tiger_network.client[0] 	downloads[0] 	12018
scalar tiger_network.client[0] 	avg_time[0] 	0.000684841392
scalar tiger_network.client[1] 	hdistance[1] 	3.2637746197956
scalar tiger_network.client[1] 	downloads[1] 	12033
scalar tiger_network.client[1] 	avg_time[1] 	0.001042342851
scalar tiger_network.client[2] 	hdistance[2] 	3.2618175765646
scalar tiger_network.client[2] 	downloads[2] 	12016
scalar tiger_network.client[2] 	avg_time[2] 	0.001210004635
scalar tiger_network.client[3] 	hdistance[3] 	3.5770392749245
scalar tiger_network.client[3] 	downloads[3] 	11916
scalar tiger_network.client[3] 	avg_time[3] 	0.001403268223
scalar tiger_network.client[4] 	hdistance[4] 	3.7794178621776
scalar tiger_network.client[4] 	downloads[4] 	12059
scalar tiger_network.client[4] 	avg_time[4] 	0.001498364478
scalar tiger_network.client[5] 	hdistance[5] 	3.8618688334301
scalar tiger_network.client[5] 	downloads[5] 	12061
scalar tiger_network.client[5] 	avg_time[5] 	0.001621319213
scalar tiger_network.client[6] 	hdistance[6] 	3.5500083626024
scalar tiger_network.client[6] 	downloads[6] 	11958
scalar tiger_network.client[6] 	avg_time[6] 	0.001084078314
scalar tiger_network.client[7] 	hdistance[7] 	3.3968293287094
scalar tiger_network.client[7] 	downloads[7] 	12111
scalar tiger_network.client[7] 	avg_time[7] 	0.001032529421
scalar tiger_network.client[8] 	hdistance[8] 	3.2047146401985
scalar tiger_network.client[8] 	downloads[8] 	12090
scalar tiger_network.client[8] 	avg_time[8] 	0.000974734911
scalar tiger_network.client[9] 	hdistance[9] 	3.6852039952599
scalar tiger_network.client[9] 	downloads[9] 	11814
scalar tiger_network.client[9] 	avg_time[9] 	0.0009488586
scalar tiger_network.client[10] 	hdistance[10] 	3.5828547648772
scalar tiger_network.client[10] 	downloads[10] 	12015
scalar tiger_network.client[10] 	avg_time[10] 	0.000983590325
scalar tiger_network.client[11] 	hdistance[11] 	3.5795724465558
scalar tiger_network.client[11] 	downloads[11] 	12209
scalar tiger_network.client[11] 	avg_time[11] 	0.000598544232
scalar tiger_network.client[12] 	hdistance[12] 	3.4114836546521
scalar tiger_network.client[12] 	downloads[12] 	11930
scalar tiger_network.client[12] 	avg_time[12] 	0.000962721894
scalar tiger_network.client[13] 	hdistance[13] 	3.7488629785827
scalar tiger_network.client[13] 	downloads[13] 	12093
scalar tiger_network.client[13] 	avg_time[13] 	0.001217276206
scalar tiger_network.client[14] 	hdistance[14] 	4.0658398535043
scalar tiger_network.client[14] 	downloads[14] 	12014
scalar tiger_network.client[14] 	avg_time[14] 	0.001125568198
scalar tiger_network.client[15] 	hdistance[15] 	4.0630047106326
scalar tiger_network.client[15] 	downloads[15] 	11888
scalar tiger_network.client[15] 	avg_time[15] 	0.001181229827
scalar tiger_network.client[16] 	hdistance[16] 	3.8141365594962
scalar tiger_network.client[16] 	downloads[16] 	12068
scalar tiger_network.client[16] 	avg_time[16] 	0.001133780502
scalar tiger_network.client[17] 	hdistance[17] 	3.5861047643226
scalar tiger_network.client[17] 	downloads[17] 	11817
scalar tiger_network.client[17] 	avg_time[17] 	0.001132954883
scalar tiger_network.client[18] 	hdistance[18] 	3.3672526202856
scalar tiger_network.client[18] 	downloads[18] 	12117
scalar tiger_network.client[18] 	avg_time[18] 	0.000740310366
scalar tiger_network.client[19] 	hdistance[19] 	3.3807432432432
scalar tiger_network.client[19] 	downloads[19] 	11840
scalar tiger_network.client[19] 	avg_time[19] 	0.000538818149
scalar tiger_network.client[20] 	hdistance[20] 	3.6490456431535
scalar tiger_network.client[20] 	downloads[20] 	12050
scalar tiger_network.client[20] 	avg_time[20] 	0.000923508799
scalar tiger_network.client[21] 	hdistance[21] 	3.5147578722355
scalar tiger_network.client[21] 	downloads[21] 	12163
scalar tiger_network.client[21] 	avg_time[21] 	0.000810259322
