version 2
run General-6-20160824-11:05:26-24543
attr D ffc0.1
attr F nrr
attr R lru
attr a 0.9
attr configname General
attr datetime 20160824-11:05:26
attr experiment General
attr inifile hw5115/scenario_C/omnetp.ini
attr iterationvars "$net=dtelecom, $rep=1, $a=0.9, $F=nrr, $D=ffc0.1, $R=lru, $window=60, $variance=0.05, $mytime=600"
attr iterationvars2 "$net=dtelecom, $rep=1, $a=0.9, $F=nrr, $D=ffc0.1, $R=lru, $window=60, $variance=0.05, $mytime=600, $repetition=0"
attr measurement "$net=dtelecom, $rep=1, $a=0.9, $F=nrr, $D=ffc0.1, $R=lru, $window=60, $variance=0.05, $mytime=600"
attr mytime 600
attr net dtelecom
attr network networks.${net=dtelecom}_network
attr processid 24543
attr rep 1
attr repetition 0
attr replication #0
attr resultdir results
attr runnumber 6
attr seedset 1
attr variance 0.05
attr window 60

scalar . 	a 	0.9
scalar . 	mytime 	600
scalar . 	rep 	1
scalar . 	variance 	0.05
scalar . 	window 	60
scalar dtelecom_network.content_distribution 	repo-0 	46
scalar dtelecom_network.content_distribution 	repo-1 	55
scalar dtelecom_network.content_distribution 	repo-2 	1
scalar dtelecom_network.content_distribution 	repo-3 	50
scalar dtelecom_network.content_distribution 	repo-4 	9
scalar dtelecom_network.content_distribution 	repo-5 	58
scalar dtelecom_network.content_distribution 	repo-6 	57
scalar dtelecom_network.content_distribution 	repo-7 	36
scalar dtelecom_network.content_distribution 	repo-8 	44
scalar dtelecom_network.content_distribution 	repo-9 	38
scalar dtelecom_network.content_distribution 	repo-10 	52
scalar dtelecom_network.content_distribution 	repo-11 	3
scalar dtelecom_network.content_distribution 	repo-12 	0
scalar dtelecom_network.content_distribution 	repo-13 	21
scalar dtelecom_network.content_distribution 	repo-14 	56
scalar dtelecom_network.content_distribution 	repo-15 	66
scalar dtelecom_network.content_distribution 	client-0 	46
scalar dtelecom_network.content_distribution 	client-1 	30
scalar dtelecom_network.content_distribution 	client-2 	8
scalar dtelecom_network.content_distribution 	client-3 	49
scalar dtelecom_network.content_distribution 	client-4 	66
scalar dtelecom_network.content_distribution 	client-5 	58
scalar dtelecom_network.content_distribution 	client-6 	32
scalar dtelecom_network.content_distribution 	client-7 	40
scalar dtelecom_network.content_distribution 	client-8 	42
scalar dtelecom_network.content_distribution 	client-9 	45
scalar dtelecom_network.content_distribution 	client-10 	33
scalar dtelecom_network.content_distribution 	client-11 	28
scalar dtelecom_network.content_distribution 	client-12 	3
scalar dtelecom_network.content_distribution 	client-13 	57
scalar dtelecom_network.content_distribution 	client-14 	50
scalar dtelecom_network.content_distribution 	client-15 	17
scalar dtelecom_network.content_distribution 	client-16 	59
scalar dtelecom_network.content_distribution 	client-17 	48
scalar dtelecom_network.content_distribution 	client-18 	23
scalar dtelecom_network.content_distribution 	client-19 	22
scalar dtelecom_network.content_distribution 	client-20 	67
scalar dtelecom_network.content_distribution 	client-21 	62
scalar dtelecom_network.content_distribution 	client-22 	56
scalar dtelecom_network.content_distribution 	client-23 	55
scalar dtelecom_network.content_distribution 	client-24 	53
scalar dtelecom_network.content_distribution 	client-25 	36
scalar dtelecom_network.content_distribution 	client-26 	51
scalar dtelecom_network.content_distribution 	client-27 	37
scalar dtelecom_network.content_distribution 	client-28 	54
scalar dtelecom_network.content_distribution 	client-29 	4
scalar dtelecom_network.content_distribution 	client-30 	31
scalar dtelecom_network.content_distribution 	client-31 	9
scalar dtelecom_network.content_distribution 	repo-0_card 	6196
scalar dtelecom_network.content_distribution 	repo-0_price 	0
scalar dtelecom_network.content_distribution 	repo-1_card 	6204
scalar dtelecom_network.content_distribution 	repo-1_price 	0
scalar dtelecom_network.content_distribution 	repo-2_card 	6202
scalar dtelecom_network.content_distribution 	repo-2_price 	0
scalar dtelecom_network.content_distribution 	repo-3_card 	6244
scalar dtelecom_network.content_distribution 	repo-3_price 	0
scalar dtelecom_network.content_distribution 	repo-4_card 	6365
scalar dtelecom_network.content_distribution 	repo-4_price 	0
scalar dtelecom_network.content_distribution 	repo-5_card 	6245
scalar dtelecom_network.content_distribution 	repo-5_price 	0
scalar dtelecom_network.content_distribution 	repo-6_card 	6166
scalar dtelecom_network.content_distribution 	repo-6_price 	0
scalar dtelecom_network.content_distribution 	repo-7_card 	6312
scalar dtelecom_network.content_distribution 	repo-7_price 	0
scalar dtelecom_network.content_distribution 	repo-8_card 	6163
scalar dtelecom_network.content_distribution 	repo-8_price 	0
scalar dtelecom_network.content_distribution 	repo-9_card 	6249
scalar dtelecom_network.content_distribution 	repo-9_price 	0
scalar dtelecom_network.content_distribution 	repo-10_card 	6284
scalar dtelecom_network.content_distribution 	repo-10_price 	0
scalar dtelecom_network.content_distribution 	repo-11_card 	6276
scalar dtelecom_network.content_distribution 	repo-11_price 	0
scalar dtelecom_network.content_distribution 	repo-12_card 	6338
scalar dtelecom_network.content_distribution 	repo-12_price 	0
scalar dtelecom_network.content_distribution 	repo-13_card 	6363
scalar dtelecom_network.content_distribution 	repo-13_price 	0
scalar dtelecom_network.content_distribution 	repo-14_card 	6276
scalar dtelecom_network.content_distribution 	repo-14_price 	0
scalar dtelecom_network.content_distribution 	repo-15_card 	6117
scalar dtelecom_network.content_distribution 	repo-15_price 	0
scalar dtelecom_network.statistics 	stabilization_time 	9759.9
scalar dtelecom_network.statistics 	p_hit 	0.30476628703201
scalar dtelecom_network.statistics 	interests 	12740.705882353
scalar dtelecom_network.statistics 	data 	7096.5147058824
scalar dtelecom_network.statistics 	hdistance 	1.7531548594467
scalar dtelecom_network.statistics 	avg_time 	0.023074140861
scalar dtelecom_network.statistics 	downloads 	383777
scalar dtelecom_network.statistics 	total_cost 	0
scalar dtelecom_network.statistics 	total_replicas 	100000
scalar dtelecom_network.statistics 	inner_hit 	0.50459772211467
scalar dtelecom_network.node[0].core_layer 	interests[0] 	13635
scalar dtelecom_network.node[0].core_layer 	repo_load[0] 	11253
scalar dtelecom_network.node[0].core_layer 	data[0] 	0
scalar dtelecom_network.node[0].core_layer 	repo_int[0] 	190124
scalar dtelecom_network.node[0].content_store 	p_hit[0] 	0.17469746974697
scalar dtelecom_network.node[0].content_store 	hits[0] 	2382
scalar dtelecom_network.node[0].content_store 	misses[0] 	11253
scalar dtelecom_network.node[0].content_store 	decision_yes[0] 	51
scalar dtelecom_network.node[0].content_store 	decision_no[0] 	11202
scalar dtelecom_network.node[0].content_store 	decision_ratio[0] 	0.0045321247667289
scalar dtelecom_network.node[1].core_layer 	interests[1] 	179386
scalar dtelecom_network.node[1].core_layer 	repo_load[1] 	14394
scalar dtelecom_network.node[1].core_layer 	data[1] 	155344
scalar dtelecom_network.node[1].content_store 	p_hit[1] 	0.053655246228803
scalar dtelecom_network.node[1].content_store 	hits[1] 	9625
scalar dtelecom_network.node[1].content_store 	misses[1] 	169761
scalar dtelecom_network.node[1].content_store 	decision_yes[1] 	106
scalar dtelecom_network.node[1].content_store 	decision_no[1] 	169632
scalar dtelecom_network.node[1].content_store 	decision_ratio[1] 	0.00062449186393147
scalar dtelecom_network.node[2].core_layer 	interests[2] 	6212
scalar dtelecom_network.node[2].core_layer 	data[2] 	3298
scalar dtelecom_network.node[2].content_store 	p_hit[2] 	0.46909207984546
scalar dtelecom_network.node[2].content_store 	hits[2] 	2914
scalar dtelecom_network.node[2].content_store 	misses[2] 	3298
scalar dtelecom_network.node[2].content_store 	decision_yes[2] 	4
scalar dtelecom_network.node[2].content_store 	decision_no[2] 	3294
scalar dtelecom_network.node[2].content_store 	decision_ratio[2] 	0.0012128562765312
scalar dtelecom_network.node[3].core_layer 	interests[3] 	33099
scalar dtelecom_network.node[3].core_layer 	repo_load[3] 	12642
scalar dtelecom_network.node[3].core_layer 	data[3] 	8895
scalar dtelecom_network.node[3].content_store 	p_hit[3] 	0.34934590168887
scalar dtelecom_network.node[3].content_store 	hits[3] 	11563
scalar dtelecom_network.node[3].content_store 	misses[3] 	21536
scalar dtelecom_network.node[3].content_store 	decision_yes[3] 	75
scalar dtelecom_network.node[3].content_store 	decision_no[3] 	21462
scalar dtelecom_network.node[3].content_store 	decision_ratio[3] 	0.0034823791614431
scalar dtelecom_network.node[4].core_layer 	interests[4] 	52436
scalar dtelecom_network.node[4].core_layer 	data[4] 	38101
scalar dtelecom_network.node[4].content_store 	p_hit[4] 	0.27294225341369
scalar dtelecom_network.node[4].content_store 	hits[4] 	14312
scalar dtelecom_network.node[4].content_store 	misses[4] 	38124
scalar dtelecom_network.node[4].content_store 	decision_yes[4] 	66
scalar dtelecom_network.node[4].content_store 	decision_no[4] 	38035
scalar dtelecom_network.node[4].content_store 	decision_ratio[4] 	0.0017322379990027
scalar dtelecom_network.node[5].core_layer 	interests[5] 	0
scalar dtelecom_network.node[5].core_layer 	data[5] 	0
scalar dtelecom_network.node[5].content_store 	p_hit[5] 	-nan
scalar dtelecom_network.node[5].content_store 	hits[5] 	0
scalar dtelecom_network.node[5].content_store 	misses[5] 	0
scalar dtelecom_network.node[5].content_store 	decision_yes[5] 	0
scalar dtelecom_network.node[5].content_store 	decision_no[5] 	0
scalar dtelecom_network.node[5].content_store 	decision_ratio[5] 	0
scalar dtelecom_network.node[6].core_layer 	interests[6] 	0
scalar dtelecom_network.node[6].core_layer 	data[6] 	0
scalar dtelecom_network.node[6].content_store 	p_hit[6] 	-nan
scalar dtelecom_network.node[6].content_store 	hits[6] 	0
scalar dtelecom_network.node[6].content_store 	misses[6] 	0
scalar dtelecom_network.node[6].content_store 	decision_yes[6] 	0
scalar dtelecom_network.node[6].content_store 	decision_no[6] 	0
scalar dtelecom_network.node[6].content_store 	decision_ratio[6] 	0
scalar dtelecom_network.node[7].core_layer 	interests[7] 	0
scalar dtelecom_network.node[7].core_layer 	data[7] 	0
scalar dtelecom_network.node[7].content_store 	p_hit[7] 	-nan
scalar dtelecom_network.node[7].content_store 	hits[7] 	0
scalar dtelecom_network.node[7].content_store 	misses[7] 	0
scalar dtelecom_network.node[7].content_store 	decision_yes[7] 	0
scalar dtelecom_network.node[7].content_store 	decision_no[7] 	0
scalar dtelecom_network.node[7].content_store 	decision_ratio[7] 	0
scalar dtelecom_network.node[8].core_layer 	interests[8] 	13202
scalar dtelecom_network.node[8].core_layer 	data[8] 	8752
scalar dtelecom_network.node[8].content_store 	p_hit[8] 	0.33714588698682
scalar dtelecom_network.node[8].content_store 	hits[8] 	4451
scalar dtelecom_network.node[8].content_store 	misses[8] 	8751
scalar dtelecom_network.node[8].content_store 	decision_yes[8] 	11
scalar dtelecom_network.node[8].content_store 	decision_no[8] 	8741
scalar dtelecom_network.node[8].content_store 	decision_ratio[8] 	0.0012568555758684
scalar dtelecom_network.node[9].core_layer 	interests[9] 	26870
scalar dtelecom_network.node[9].core_layer 	repo_load[9] 	12637
scalar dtelecom_network.node[9].core_layer 	data[9] 	9289
scalar dtelecom_network.node[9].content_store 	p_hit[9] 	0.1839970227019
scalar dtelecom_network.node[9].content_store 	hits[9] 	4944
scalar dtelecom_network.node[9].content_store 	misses[9] 	21926
scalar dtelecom_network.node[9].content_store 	decision_yes[9] 	59
scalar dtelecom_network.node[9].content_store 	decision_no[9] 	21867
scalar dtelecom_network.node[9].content_store 	decision_ratio[9] 	0.0026908692876038
scalar dtelecom_network.node[10].core_layer 	interests[10] 	0
scalar dtelecom_network.node[10].core_layer 	data[10] 	0
scalar dtelecom_network.node[10].content_store 	p_hit[10] 	-nan
scalar dtelecom_network.node[10].content_store 	hits[10] 	0
scalar dtelecom_network.node[10].content_store 	misses[10] 	0
scalar dtelecom_network.node[10].content_store 	decision_yes[10] 	0
scalar dtelecom_network.node[10].content_store 	decision_no[10] 	0
scalar dtelecom_network.node[10].content_store 	decision_ratio[10] 	0
scalar dtelecom_network.node[11].core_layer 	interests[11] 	0
scalar dtelecom_network.node[11].core_layer 	data[11] 	0
scalar dtelecom_network.node[11].content_store 	p_hit[11] 	-nan
scalar dtelecom_network.node[11].content_store 	hits[11] 	0
scalar dtelecom_network.node[11].content_store 	misses[11] 	0
scalar dtelecom_network.node[11].content_store 	decision_yes[11] 	0
scalar dtelecom_network.node[11].content_store 	decision_no[11] 	0
scalar dtelecom_network.node[11].content_store 	decision_ratio[11] 	0
scalar dtelecom_network.node[12].core_layer 	interests[12] 	0
scalar dtelecom_network.node[12].core_layer 	data[12] 	0
scalar dtelecom_network.node[12].content_store 	p_hit[12] 	-nan
scalar dtelecom_network.node[12].content_store 	hits[12] 	0
scalar dtelecom_network.node[12].content_store 	misses[12] 	0
scalar dtelecom_network.node[12].content_store 	decision_yes[12] 	0
scalar dtelecom_network.node[12].content_store 	decision_no[12] 	0
scalar dtelecom_network.node[12].content_store 	decision_ratio[12] 	0
scalar dtelecom_network.node[13].core_layer 	interests[13] 	0
scalar dtelecom_network.node[13].core_layer 	data[13] 	0
scalar dtelecom_network.node[13].content_store 	p_hit[13] 	-nan
scalar dtelecom_network.node[13].content_store 	hits[13] 	0
scalar dtelecom_network.node[13].content_store 	misses[13] 	0
scalar dtelecom_network.node[13].content_store 	decision_yes[13] 	0
scalar dtelecom_network.node[13].content_store 	decision_no[13] 	0
scalar dtelecom_network.node[13].content_store 	decision_ratio[13] 	0
scalar dtelecom_network.node[14].core_layer 	interests[14] 	0
scalar dtelecom_network.node[14].core_layer 	data[14] 	0
scalar dtelecom_network.node[14].content_store 	p_hit[14] 	-nan
scalar dtelecom_network.node[14].content_store 	hits[14] 	0
scalar dtelecom_network.node[14].content_store 	misses[14] 	0
scalar dtelecom_network.node[14].content_store 	decision_yes[14] 	0
scalar dtelecom_network.node[14].content_store 	decision_no[14] 	0
scalar dtelecom_network.node[14].content_store 	decision_ratio[14] 	0
scalar dtelecom_network.node[15].core_layer 	interests[15] 	0
scalar dtelecom_network.node[15].core_layer 	data[15] 	0
scalar dtelecom_network.node[15].content_store 	p_hit[15] 	-nan
scalar dtelecom_network.node[15].content_store 	hits[15] 	0
scalar dtelecom_network.node[15].content_store 	misses[15] 	0
scalar dtelecom_network.node[15].content_store 	decision_yes[15] 	0
scalar dtelecom_network.node[15].content_store 	decision_no[15] 	0
scalar dtelecom_network.node[15].content_store 	decision_ratio[15] 	0
scalar dtelecom_network.node[16].core_layer 	interests[16] 	0
scalar dtelecom_network.node[16].core_layer 	data[16] 	0
scalar dtelecom_network.node[16].content_store 	p_hit[16] 	-nan
scalar dtelecom_network.node[16].content_store 	hits[16] 	0
scalar dtelecom_network.node[16].content_store 	misses[16] 	0
scalar dtelecom_network.node[16].content_store 	decision_yes[16] 	0
scalar dtelecom_network.node[16].content_store 	decision_no[16] 	0
scalar dtelecom_network.node[16].content_store 	decision_ratio[16] 	0
scalar dtelecom_network.node[17].core_layer 	interests[17] 	14051
scalar dtelecom_network.node[17].core_layer 	data[17] 	9462
scalar dtelecom_network.node[17].content_store 	p_hit[17] 	0.32659597181695
scalar dtelecom_network.node[17].content_store 	hits[17] 	4589
scalar dtelecom_network.node[17].content_store 	misses[17] 	9462
scalar dtelecom_network.node[17].content_store 	decision_yes[17] 	22
scalar dtelecom_network.node[17].content_store 	decision_no[17] 	9440
scalar dtelecom_network.node[17].content_store 	decision_ratio[17] 	0.0023250898330163
scalar dtelecom_network.node[18].core_layer 	interests[18] 	0
scalar dtelecom_network.node[18].core_layer 	data[18] 	0
scalar dtelecom_network.node[18].content_store 	p_hit[18] 	-nan
scalar dtelecom_network.node[18].content_store 	hits[18] 	0
scalar dtelecom_network.node[18].content_store 	misses[18] 	0
scalar dtelecom_network.node[18].content_store 	decision_yes[18] 	0
scalar dtelecom_network.node[18].content_store 	decision_no[18] 	0
scalar dtelecom_network.node[18].content_store 	decision_ratio[18] 	0
scalar dtelecom_network.node[19].core_layer 	interests[19] 	0
scalar dtelecom_network.node[19].core_layer 	data[19] 	0
scalar dtelecom_network.node[19].content_store 	p_hit[19] 	-nan
scalar dtelecom_network.node[19].content_store 	hits[19] 	0
scalar dtelecom_network.node[19].content_store 	misses[19] 	0
scalar dtelecom_network.node[19].content_store 	decision_yes[19] 	0
scalar dtelecom_network.node[19].content_store 	decision_no[19] 	0
scalar dtelecom_network.node[19].content_store 	decision_ratio[19] 	0
scalar dtelecom_network.node[20].core_layer 	interests[20] 	0
scalar dtelecom_network.node[20].core_layer 	data[20] 	0
scalar dtelecom_network.node[20].content_store 	p_hit[20] 	-nan
scalar dtelecom_network.node[20].content_store 	hits[20] 	0
scalar dtelecom_network.node[20].content_store 	misses[20] 	0
scalar dtelecom_network.node[20].content_store 	decision_yes[20] 	0
scalar dtelecom_network.node[20].content_store 	decision_no[20] 	0
scalar dtelecom_network.node[20].content_store 	decision_ratio[20] 	0
scalar dtelecom_network.node[21].core_layer 	interests[21] 	13767
scalar dtelecom_network.node[21].core_layer 	repo_load[21] 	11043
scalar dtelecom_network.node[21].core_layer 	data[21] 	0
scalar dtelecom_network.node[21].content_store 	p_hit[21] 	0.19786445848769
scalar dtelecom_network.node[21].content_store 	hits[21] 	2724
scalar dtelecom_network.node[21].content_store 	misses[21] 	11043
scalar dtelecom_network.node[21].content_store 	decision_yes[21] 	46
scalar dtelecom_network.node[21].content_store 	decision_no[21] 	10997
scalar dtelecom_network.node[21].content_store 	decision_ratio[21] 	0.0041655347278819
scalar dtelecom_network.node[22].core_layer 	interests[22] 	13086
scalar dtelecom_network.node[22].core_layer 	data[22] 	8735
scalar dtelecom_network.node[22].content_store 	p_hit[22] 	0.33233990524224
scalar dtelecom_network.node[22].content_store 	hits[22] 	4349
scalar dtelecom_network.node[22].content_store 	misses[22] 	8737
scalar dtelecom_network.node[22].content_store 	decision_yes[22] 	19
scalar dtelecom_network.node[22].content_store 	decision_no[22] 	8716
scalar dtelecom_network.node[22].content_store 	decision_ratio[22] 	0.0021751574127075
scalar dtelecom_network.node[23].core_layer 	interests[23] 	26003
scalar dtelecom_network.node[23].core_layer 	data[23] 	18792
scalar dtelecom_network.node[23].content_store 	p_hit[23] 	0.2771218705534
scalar dtelecom_network.node[23].content_store 	hits[23] 	7206
scalar dtelecom_network.node[23].content_store 	misses[23] 	18797
scalar dtelecom_network.node[23].content_store 	decision_yes[23] 	29
scalar dtelecom_network.node[23].content_store 	decision_no[23] 	18763
scalar dtelecom_network.node[23].content_store 	decision_ratio[23] 	0.0015432098765432
scalar dtelecom_network.node[24].core_layer 	interests[24] 	0
scalar dtelecom_network.node[24].core_layer 	data[24] 	0
scalar dtelecom_network.node[24].content_store 	p_hit[24] 	-nan
scalar dtelecom_network.node[24].content_store 	hits[24] 	0
scalar dtelecom_network.node[24].content_store 	misses[24] 	0
scalar dtelecom_network.node[24].content_store 	decision_yes[24] 	0
scalar dtelecom_network.node[24].content_store 	decision_no[24] 	0
scalar dtelecom_network.node[24].content_store 	decision_ratio[24] 	0
scalar dtelecom_network.node[25].core_layer 	interests[25] 	0
scalar dtelecom_network.node[25].core_layer 	data[25] 	0
scalar dtelecom_network.node[25].content_store 	p_hit[25] 	-nan
scalar dtelecom_network.node[25].content_store 	hits[25] 	0
scalar dtelecom_network.node[25].content_store 	misses[25] 	0
scalar dtelecom_network.node[25].content_store 	decision_yes[25] 	0
scalar dtelecom_network.node[25].content_store 	decision_no[25] 	0
scalar dtelecom_network.node[25].content_store 	decision_ratio[25] 	0
scalar dtelecom_network.node[26].core_layer 	interests[26] 	1402
scalar dtelecom_network.node[26].core_layer 	data[26] 	387
scalar dtelecom_network.node[26].content_store 	p_hit[26] 	0.72396576319544
scalar dtelecom_network.node[26].content_store 	hits[26] 	1015
scalar dtelecom_network.node[26].content_store 	misses[26] 	387
scalar dtelecom_network.node[26].content_store 	decision_yes[26] 	2
scalar dtelecom_network.node[26].content_store 	decision_no[26] 	385
scalar dtelecom_network.node[26].content_store 	decision_ratio[26] 	0.0051679586563307
scalar dtelecom_network.node[27].core_layer 	interests[27] 	0
scalar dtelecom_network.node[27].core_layer 	data[27] 	0
scalar dtelecom_network.node[27].content_store 	p_hit[27] 	-nan
scalar dtelecom_network.node[27].content_store 	hits[27] 	0
scalar dtelecom_network.node[27].content_store 	misses[27] 	0
scalar dtelecom_network.node[27].content_store 	decision_yes[27] 	0
scalar dtelecom_network.node[27].content_store 	decision_no[27] 	0
scalar dtelecom_network.node[27].content_store 	decision_ratio[27] 	0
scalar dtelecom_network.node[28].core_layer 	interests[28] 	13470
scalar dtelecom_network.node[28].core_layer 	data[28] 	8820
scalar dtelecom_network.node[28].content_store 	p_hit[28] 	0.3452858203415
scalar dtelecom_network.node[28].content_store 	hits[28] 	4651
scalar dtelecom_network.node[28].content_store 	misses[28] 	8819
scalar dtelecom_network.node[28].content_store 	decision_yes[28] 	16
scalar dtelecom_network.node[28].content_store 	decision_no[28] 	8804
scalar dtelecom_network.node[28].content_store 	decision_ratio[28] 	0.0018140589569161
scalar dtelecom_network.node[29].core_layer 	interests[29] 	0
scalar dtelecom_network.node[29].core_layer 	data[29] 	0
scalar dtelecom_network.node[29].content_store 	p_hit[29] 	-nan
scalar dtelecom_network.node[29].content_store 	hits[29] 	0
scalar dtelecom_network.node[29].content_store 	misses[29] 	0
scalar dtelecom_network.node[29].content_store 	decision_yes[29] 	0
scalar dtelecom_network.node[29].content_store 	decision_no[29] 	0
scalar dtelecom_network.node[29].content_store 	decision_ratio[29] 	0
scalar dtelecom_network.node[30].core_layer 	interests[30] 	13235
scalar dtelecom_network.node[30].core_layer 	data[30] 	8902
scalar dtelecom_network.node[30].content_store 	p_hit[30] 	0.32738949754439
scalar dtelecom_network.node[30].content_store 	hits[30] 	4333
scalar dtelecom_network.node[30].content_store 	misses[30] 	8902
scalar dtelecom_network.node[30].content_store 	decision_yes[30] 	16
scalar dtelecom_network.node[30].content_store 	decision_no[30] 	8886
scalar dtelecom_network.node[30].content_store 	decision_ratio[30] 	0.0017973489103572
scalar dtelecom_network.node[31].core_layer 	interests[31] 	13643
scalar dtelecom_network.node[31].core_layer 	data[31] 	8870
scalar dtelecom_network.node[31].content_store 	p_hit[31] 	0.3497764421315
scalar dtelecom_network.node[31].content_store 	hits[31] 	4772
scalar dtelecom_network.node[31].content_store 	misses[31] 	8871
scalar dtelecom_network.node[31].content_store 	decision_yes[31] 	14
scalar dtelecom_network.node[31].content_store 	decision_no[31] 	8856
scalar dtelecom_network.node[31].content_store 	decision_ratio[31] 	0.0015783540022548
scalar dtelecom_network.node[32].core_layer 	interests[32] 	13175
scalar dtelecom_network.node[32].core_layer 	data[32] 	8756
scalar dtelecom_network.node[32].content_store 	p_hit[32] 	0.33540796963947
scalar dtelecom_network.node[32].content_store 	hits[32] 	4419
scalar dtelecom_network.node[32].content_store 	misses[32] 	8756
scalar dtelecom_network.node[32].content_store 	decision_yes[32] 	17
scalar dtelecom_network.node[32].content_store 	decision_no[32] 	8739
scalar dtelecom_network.node[32].content_store 	decision_ratio[32] 	0.0019415258108725
scalar dtelecom_network.node[33].core_layer 	interests[33] 	13934
scalar dtelecom_network.node[33].core_layer 	data[33] 	8855
scalar dtelecom_network.node[33].content_store 	p_hit[33] 	0.36443232381226
scalar dtelecom_network.node[33].content_store 	hits[33] 	5078
scalar dtelecom_network.node[33].content_store 	misses[33] 	8856
scalar dtelecom_network.node[33].content_store 	decision_yes[33] 	22
scalar dtelecom_network.node[33].content_store 	decision_no[33] 	8833
scalar dtelecom_network.node[33].content_store 	decision_ratio[33] 	0.0024844720496894
scalar dtelecom_network.node[34].core_layer 	interests[34] 	0
scalar dtelecom_network.node[34].core_layer 	data[34] 	0
scalar dtelecom_network.node[34].content_store 	p_hit[34] 	-nan
scalar dtelecom_network.node[34].content_store 	hits[34] 	0
scalar dtelecom_network.node[34].content_store 	misses[34] 	0
scalar dtelecom_network.node[34].content_store 	decision_yes[34] 	0
scalar dtelecom_network.node[34].content_store 	decision_no[34] 	0
scalar dtelecom_network.node[34].content_store 	decision_ratio[34] 	0
scalar dtelecom_network.node[35].core_layer 	interests[35] 	0
scalar dtelecom_network.node[35].core_layer 	data[35] 	0
scalar dtelecom_network.node[35].content_store 	p_hit[35] 	-nan
scalar dtelecom_network.node[35].content_store 	hits[35] 	0
scalar dtelecom_network.node[35].content_store 	misses[35] 	0
scalar dtelecom_network.node[35].content_store 	decision_yes[35] 	0
scalar dtelecom_network.node[35].content_store 	decision_no[35] 	0
scalar dtelecom_network.node[35].content_store 	decision_ratio[35] 	0
scalar dtelecom_network.node[36].core_layer 	interests[36] 	25593
scalar dtelecom_network.node[36].core_layer 	repo_load[36] 	12351
scalar dtelecom_network.node[36].core_layer 	data[36] 	8747
scalar dtelecom_network.node[36].content_store 	p_hit[36] 	0.17559488922752
scalar dtelecom_network.node[36].content_store 	hits[36] 	4494
scalar dtelecom_network.node[36].content_store 	misses[36] 	21099
scalar dtelecom_network.node[36].content_store 	decision_yes[36] 	49
scalar dtelecom_network.node[36].content_store 	decision_no[36] 	21049
scalar dtelecom_network.node[36].content_store 	decision_ratio[36] 	0.002322495023225
scalar dtelecom_network.node[37].core_layer 	interests[37] 	13539
scalar dtelecom_network.node[37].core_layer 	data[37] 	9044
scalar dtelecom_network.node[37].content_store 	p_hit[37] 	0.33170839796144
scalar dtelecom_network.node[37].content_store 	hits[37] 	4491
scalar dtelecom_network.node[37].content_store 	misses[37] 	9048
scalar dtelecom_network.node[37].content_store 	decision_yes[37] 	21
scalar dtelecom_network.node[37].content_store 	decision_no[37] 	9023
scalar dtelecom_network.node[37].content_store 	decision_ratio[37] 	0.0023219814241486
scalar dtelecom_network.node[38].core_layer 	interests[38] 	14282
scalar dtelecom_network.node[38].core_layer 	repo_load[38] 	11444
scalar dtelecom_network.node[38].core_layer 	data[38] 	0
scalar dtelecom_network.node[38].content_store 	p_hit[38] 	0.19871166503291
scalar dtelecom_network.node[38].content_store 	hits[38] 	2838
scalar dtelecom_network.node[38].content_store 	misses[38] 	11444
scalar dtelecom_network.node[38].content_store 	decision_yes[38] 	45
scalar dtelecom_network.node[38].content_store 	decision_no[38] 	11399
scalar dtelecom_network.node[38].content_store 	decision_ratio[38] 	0.0039321915414191
scalar dtelecom_network.node[39].core_layer 	interests[39] 	0
scalar dtelecom_network.node[39].core_layer 	data[39] 	0
scalar dtelecom_network.node[39].content_store 	p_hit[39] 	-nan
scalar dtelecom_network.node[39].content_store 	hits[39] 	0
scalar dtelecom_network.node[39].content_store 	misses[39] 	0
scalar dtelecom_network.node[39].content_store 	decision_yes[39] 	0
scalar dtelecom_network.node[39].content_store 	decision_no[39] 	0
scalar dtelecom_network.node[39].content_store 	decision_ratio[39] 	0
scalar dtelecom_network.node[40].core_layer 	interests[40] 	14804
scalar dtelecom_network.node[40].core_layer 	data[40] 	8887
scalar dtelecom_network.node[40].content_store 	p_hit[40] 	0.39962172385842
scalar dtelecom_network.node[40].content_store 	hits[40] 	5916
scalar dtelecom_network.node[40].content_store 	misses[40] 	8888
scalar dtelecom_network.node[40].content_store 	decision_yes[40] 	17
scalar dtelecom_network.node[40].content_store 	decision_no[40] 	8870
scalar dtelecom_network.node[40].content_store 	decision_ratio[40] 	0.0019129064926297
scalar dtelecom_network.node[41].core_layer 	interests[41] 	0
scalar dtelecom_network.node[41].core_layer 	data[41] 	0
scalar dtelecom_network.node[41].content_store 	p_hit[41] 	-nan
scalar dtelecom_network.node[41].content_store 	hits[41] 	0
scalar dtelecom_network.node[41].content_store 	misses[41] 	0
scalar dtelecom_network.node[41].content_store 	decision_yes[41] 	0
scalar dtelecom_network.node[41].content_store 	decision_no[41] 	0
scalar dtelecom_network.node[41].content_store 	decision_ratio[41] 	0
scalar dtelecom_network.node[42].core_layer 	interests[42] 	12996
scalar dtelecom_network.node[42].core_layer 	data[42] 	8700
scalar dtelecom_network.node[42].content_store 	p_hit[42] 	0.33056325023084
scalar dtelecom_network.node[42].content_store 	hits[42] 	4296
scalar dtelecom_network.node[42].content_store 	misses[42] 	8700
scalar dtelecom_network.node[42].content_store 	decision_yes[42] 	17
scalar dtelecom_network.node[42].content_store 	decision_no[42] 	8683
scalar dtelecom_network.node[42].content_store 	decision_ratio[42] 	0.0019540229885057
scalar dtelecom_network.node[43].core_layer 	interests[43] 	0
scalar dtelecom_network.node[43].core_layer 	data[43] 	0
scalar dtelecom_network.node[43].content_store 	p_hit[43] 	-nan
scalar dtelecom_network.node[43].content_store 	hits[43] 	0
scalar dtelecom_network.node[43].content_store 	misses[43] 	0
scalar dtelecom_network.node[43].content_store 	decision_yes[43] 	0
scalar dtelecom_network.node[43].content_store 	decision_no[43] 	0
scalar dtelecom_network.node[43].content_store 	decision_ratio[43] 	0
scalar dtelecom_network.node[44].core_layer 	interests[44] 	12565
scalar dtelecom_network.node[44].core_layer 	repo_load[44] 	10530
scalar dtelecom_network.node[44].core_layer 	data[44] 	0
scalar dtelecom_network.node[44].content_store 	p_hit[44] 	0.16195781933943
scalar dtelecom_network.node[44].content_store 	hits[44] 	2035
scalar dtelecom_network.node[44].content_store 	misses[44] 	10530
scalar dtelecom_network.node[44].content_store 	decision_yes[44] 	38
scalar dtelecom_network.node[44].content_store 	decision_no[44] 	10492
scalar dtelecom_network.node[44].content_store 	decision_ratio[44] 	0.0036087369420703
scalar dtelecom_network.node[45].core_layer 	interests[45] 	13821
scalar dtelecom_network.node[45].core_layer 	data[45] 	8985
scalar dtelecom_network.node[45].content_store 	p_hit[45] 	0.34990232255264
scalar dtelecom_network.node[45].content_store 	hits[45] 	4836
scalar dtelecom_network.node[45].content_store 	misses[45] 	8985
scalar dtelecom_network.node[45].content_store 	decision_yes[45] 	19
scalar dtelecom_network.node[45].content_store 	decision_no[45] 	8966
scalar dtelecom_network.node[45].content_store 	decision_ratio[45] 	0.0021146355036171
scalar dtelecom_network.node[46].core_layer 	interests[46] 	25431
scalar dtelecom_network.node[46].core_layer 	repo_load[46] 	11785
scalar dtelecom_network.node[46].core_layer 	data[46] 	8858
scalar dtelecom_network.node[46].content_store 	p_hit[46] 	0.18823483150486
scalar dtelecom_network.node[46].content_store 	hits[46] 	4787
scalar dtelecom_network.node[46].content_store 	misses[46] 	20644
scalar dtelecom_network.node[46].content_store 	decision_yes[46] 	50
scalar dtelecom_network.node[46].content_store 	decision_no[46] 	20593
scalar dtelecom_network.node[46].content_store 	decision_ratio[46] 	0.0024221285665843
scalar dtelecom_network.node[47].core_layer 	interests[47] 	0
scalar dtelecom_network.node[47].core_layer 	data[47] 	0
scalar dtelecom_network.node[47].content_store 	p_hit[47] 	-nan
scalar dtelecom_network.node[47].content_store 	hits[47] 	0
scalar dtelecom_network.node[47].content_store 	misses[47] 	0
scalar dtelecom_network.node[47].content_store 	decision_yes[47] 	0
scalar dtelecom_network.node[47].content_store 	decision_no[47] 	0
scalar dtelecom_network.node[47].content_store 	decision_ratio[47] 	0
scalar dtelecom_network.node[48].core_layer 	interests[48] 	12875
scalar dtelecom_network.node[48].core_layer 	data[48] 	8710
scalar dtelecom_network.node[48].content_store 	p_hit[48] 	0.32349514563107
scalar dtelecom_network.node[48].content_store 	hits[48] 	4165
scalar dtelecom_network.node[48].content_store 	misses[48] 	8710
scalar dtelecom_network.node[48].content_store 	decision_yes[48] 	21
scalar dtelecom_network.node[48].content_store 	decision_no[48] 	8689
scalar dtelecom_network.node[48].content_store 	decision_ratio[48] 	0.0024110218140069
scalar dtelecom_network.node[49].core_layer 	interests[49] 	13549
scalar dtelecom_network.node[49].core_layer 	data[49] 	9107
scalar dtelecom_network.node[49].content_store 	p_hit[49] 	0.32777326739981
scalar dtelecom_network.node[49].content_store 	hits[49] 	4441
scalar dtelecom_network.node[49].content_store 	misses[49] 	9108
scalar dtelecom_network.node[49].content_store 	decision_yes[49] 	15
scalar dtelecom_network.node[49].content_store 	decision_no[49] 	9092
scalar dtelecom_network.node[49].content_store 	decision_ratio[49] 	0.0016470846601515
scalar dtelecom_network.node[50].core_layer 	interests[50] 	25118
scalar dtelecom_network.node[50].core_layer 	repo_load[50] 	11992
scalar dtelecom_network.node[50].core_layer 	data[50] 	8861
scalar dtelecom_network.node[50].content_store 	p_hit[50] 	0.16979855084004
scalar dtelecom_network.node[50].content_store 	hits[50] 	4265
scalar dtelecom_network.node[50].content_store 	misses[50] 	20853
scalar dtelecom_network.node[50].content_store 	decision_yes[50] 	49
scalar dtelecom_network.node[50].content_store 	decision_no[50] 	20804
scalar dtelecom_network.node[50].content_store 	decision_ratio[50] 	0.0023497818059752
scalar dtelecom_network.node[51].core_layer 	interests[51] 	13897
scalar dtelecom_network.node[51].core_layer 	data[51] 	8857
scalar dtelecom_network.node[51].content_store 	p_hit[51] 	0.36266820177017
scalar dtelecom_network.node[51].content_store 	hits[51] 	5040
scalar dtelecom_network.node[51].content_store 	misses[51] 	8857
scalar dtelecom_network.node[51].content_store 	decision_yes[51] 	23
scalar dtelecom_network.node[51].content_store 	decision_no[51] 	8834
scalar dtelecom_network.node[51].content_store 	decision_ratio[51] 	0.0025968160776787
scalar dtelecom_network.node[52].core_layer 	interests[52] 	13738
scalar dtelecom_network.node[52].core_layer 	repo_load[52] 	11164
scalar dtelecom_network.node[52].core_layer 	data[52] 	0
scalar dtelecom_network.node[52].content_store 	p_hit[52] 	0.18736351725142
scalar dtelecom_network.node[52].content_store 	hits[52] 	2574
scalar dtelecom_network.node[52].content_store 	misses[52] 	11164
scalar dtelecom_network.node[52].content_store 	decision_yes[52] 	54
scalar dtelecom_network.node[52].content_store 	decision_no[52] 	11110
scalar dtelecom_network.node[52].content_store 	decision_ratio[52] 	0.0048369759942673
scalar dtelecom_network.node[53].core_layer 	interests[53] 	13186
scalar dtelecom_network.node[53].core_layer 	data[53] 	8735
scalar dtelecom_network.node[53].content_store 	p_hit[53] 	0.33747914454725
scalar dtelecom_network.node[53].content_store 	hits[53] 	4450
scalar dtelecom_network.node[53].content_store 	misses[53] 	8736
scalar dtelecom_network.node[53].content_store 	decision_yes[53] 	11
scalar dtelecom_network.node[53].content_store 	decision_no[53] 	8724
scalar dtelecom_network.node[53].content_store 	decision_ratio[53] 	0.0012593016599886
scalar dtelecom_network.node[54].core_layer 	interests[54] 	13565
scalar dtelecom_network.node[54].core_layer 	data[54] 	8908
scalar dtelecom_network.node[54].content_store 	p_hit[54] 	0.34323626981202
scalar dtelecom_network.node[54].content_store 	hits[54] 	4656
scalar dtelecom_network.node[54].content_store 	misses[54] 	8909
scalar dtelecom_network.node[54].content_store 	decision_yes[54] 	8
scalar dtelecom_network.node[54].content_store 	decision_no[54] 	8900
scalar dtelecom_network.node[54].content_store 	decision_ratio[54] 	0.00089806915132465
scalar dtelecom_network.node[55].core_layer 	interests[55] 	25731
scalar dtelecom_network.node[55].core_layer 	repo_load[55] 	12013
scalar dtelecom_network.node[55].core_layer 	data[55] 	8916
scalar dtelecom_network.node[55].content_store 	p_hit[55] 	0.18654541214877
scalar dtelecom_network.node[55].content_store 	hits[55] 	4800
scalar dtelecom_network.node[55].content_store 	misses[55] 	20931
scalar dtelecom_network.node[55].content_store 	decision_yes[55] 	42
scalar dtelecom_network.node[55].content_store 	decision_no[55] 	20887
scalar dtelecom_network.node[55].content_store 	decision_ratio[55] 	0.0020067848439964
scalar dtelecom_network.node[56].core_layer 	interests[56] 	25678
scalar dtelecom_network.node[56].core_layer 	repo_load[56] 	11971
scalar dtelecom_network.node[56].core_layer 	data[56] 	8784
scalar dtelecom_network.node[56].content_store 	p_hit[56] 	0.19164265129683
scalar dtelecom_network.node[56].content_store 	hits[56] 	4921
scalar dtelecom_network.node[56].content_store 	misses[56] 	20757
scalar dtelecom_network.node[56].content_store 	decision_yes[56] 	39
scalar dtelecom_network.node[56].content_store 	decision_no[56] 	20716
scalar dtelecom_network.node[56].content_store 	decision_ratio[56] 	0.0018790652854734
scalar dtelecom_network.node[57].core_layer 	interests[57] 	24934
scalar dtelecom_network.node[57].core_layer 	repo_load[57] 	11580
scalar dtelecom_network.node[57].core_layer 	data[57] 	8873
scalar dtelecom_network.node[57].content_store 	p_hit[57] 	0.1797144461378
scalar dtelecom_network.node[57].content_store 	hits[57] 	4481
scalar dtelecom_network.node[57].content_store 	misses[57] 	20453
scalar dtelecom_network.node[57].content_store 	decision_yes[57] 	33
scalar dtelecom_network.node[57].content_store 	decision_no[57] 	20420
scalar dtelecom_network.node[57].content_store 	decision_ratio[57] 	0.0016134552388403
scalar dtelecom_network.node[58].core_layer 	interests[58] 	25503
scalar dtelecom_network.node[58].core_layer 	repo_load[58] 	11875
scalar dtelecom_network.node[58].core_layer 	data[58] 	8972
scalar dtelecom_network.node[58].content_store 	p_hit[58] 	0.1823707014861
scalar dtelecom_network.node[58].content_store 	hits[58] 	4651
scalar dtelecom_network.node[58].content_store 	misses[58] 	20852
scalar dtelecom_network.node[58].content_store 	decision_yes[58] 	50
scalar dtelecom_network.node[58].content_store 	decision_no[58] 	20797
scalar dtelecom_network.node[58].content_store 	decision_ratio[58] 	0.0023984266321293
scalar dtelecom_network.node[59].core_layer 	interests[59] 	14895
scalar dtelecom_network.node[59].core_layer 	data[59] 	8922
scalar dtelecom_network.node[59].content_store 	p_hit[59] 	0.40100704934542
scalar dtelecom_network.node[59].content_store 	hits[59] 	5973
scalar dtelecom_network.node[59].content_store 	misses[59] 	8922
scalar dtelecom_network.node[59].content_store 	decision_yes[59] 	10
scalar dtelecom_network.node[59].content_store 	decision_no[59] 	8912
scalar dtelecom_network.node[59].content_store 	decision_ratio[59] 	0.0011208249271464
scalar dtelecom_network.node[60].core_layer 	interests[60] 	0
scalar dtelecom_network.node[60].core_layer 	data[60] 	0
scalar dtelecom_network.node[60].content_store 	p_hit[60] 	-nan
scalar dtelecom_network.node[60].content_store 	hits[60] 	0
scalar dtelecom_network.node[60].content_store 	misses[60] 	0
scalar dtelecom_network.node[60].content_store 	decision_yes[60] 	0
scalar dtelecom_network.node[60].content_store 	decision_no[60] 	0
scalar dtelecom_network.node[60].content_store 	decision_ratio[60] 	0
scalar dtelecom_network.node[61].core_layer 	interests[61] 	0
scalar dtelecom_network.node[61].core_layer 	data[61] 	0
scalar dtelecom_network.node[61].content_store 	p_hit[61] 	-nan
scalar dtelecom_network.node[61].content_store 	hits[61] 	0
scalar dtelecom_network.node[61].content_store 	misses[61] 	0
scalar dtelecom_network.node[61].content_store 	decision_yes[61] 	0
scalar dtelecom_network.node[61].content_store 	decision_no[61] 	0
scalar dtelecom_network.node[61].content_store 	decision_ratio[61] 	0
scalar dtelecom_network.node[62].core_layer 	interests[62] 	12463
scalar dtelecom_network.node[62].core_layer 	data[62] 	8747
scalar dtelecom_network.node[62].content_store 	p_hit[62] 	0.29776137366605
scalar dtelecom_network.node[62].content_store 	hits[62] 	3711
scalar dtelecom_network.node[62].content_store 	misses[62] 	8752
scalar dtelecom_network.node[62].content_store 	decision_yes[62] 	15
scalar dtelecom_network.node[62].content_store 	decision_no[62] 	8732
scalar dtelecom_network.node[62].content_store 	decision_ratio[62] 	0.0017148736709729
scalar dtelecom_network.node[63].core_layer 	interests[63] 	0
scalar dtelecom_network.node[63].core_layer 	data[63] 	0
scalar dtelecom_network.node[63].content_store 	p_hit[63] 	-nan
scalar dtelecom_network.node[63].content_store 	hits[63] 	0
scalar dtelecom_network.node[63].content_store 	misses[63] 	0
scalar dtelecom_network.node[63].content_store 	decision_yes[63] 	0
scalar dtelecom_network.node[63].content_store 	decision_no[63] 	0
scalar dtelecom_network.node[63].content_store 	decision_ratio[63] 	0
scalar dtelecom_network.node[64].core_layer 	interests[64] 	0
scalar dtelecom_network.node[64].core_layer 	data[64] 	0
scalar dtelecom_network.node[64].content_store 	p_hit[64] 	-nan
scalar dtelecom_network.node[64].content_store 	hits[64] 	0
scalar dtelecom_network.node[64].content_store 	misses[64] 	0
scalar dtelecom_network.node[64].content_store 	decision_yes[64] 	0
scalar dtelecom_network.node[64].content_store 	decision_no[64] 	0
scalar dtelecom_network.node[64].content_store 	decision_ratio[64] 	0
scalar dtelecom_network.node[65].core_layer 	interests[65] 	384
scalar dtelecom_network.node[65].core_layer 	data[65] 	13
scalar dtelecom_network.node[65].content_store 	p_hit[65] 	0.96614583333333
scalar dtelecom_network.node[65].content_store 	hits[65] 	371
scalar dtelecom_network.node[65].content_store 	misses[65] 	13
scalar dtelecom_network.node[65].content_store 	decision_yes[65] 	2
scalar dtelecom_network.node[65].content_store 	decision_no[65] 	11
scalar dtelecom_network.node[65].content_store 	decision_ratio[65] 	0.15384615384615
scalar dtelecom_network.node[66].core_layer 	interests[66] 	24375
scalar dtelecom_network.node[66].core_layer 	repo_load[66] 	11450
scalar dtelecom_network.node[66].core_layer 	data[66] 	8894
scalar dtelecom_network.node[66].content_store 	p_hit[66] 	0.16533333333333
scalar dtelecom_network.node[66].content_store 	hits[66] 	4030
scalar dtelecom_network.node[66].content_store 	misses[66] 	20345
scalar dtelecom_network.node[66].content_store 	decision_yes[66] 	45
scalar dtelecom_network.node[66].content_store 	decision_no[66] 	20299
scalar dtelecom_network.node[66].content_store 	decision_ratio[66] 	0.0022119543845851
scalar dtelecom_network.node[67].core_layer 	interests[67] 	12840
scalar dtelecom_network.node[67].core_layer 	data[67] 	8785
scalar dtelecom_network.node[67].content_store 	p_hit[67] 	0.31573208722741
scalar dtelecom_network.node[67].content_store 	hits[67] 	4054
scalar dtelecom_network.node[67].content_store 	misses[67] 	8786
scalar dtelecom_network.node[67].content_store 	decision_yes[67] 	11
scalar dtelecom_network.node[67].content_store 	decision_no[67] 	8774
scalar dtelecom_network.node[67].content_store 	decision_ratio[67] 	0.0012521343198634
scalar dtelecom_network.client[3] 	hdistance[3] 	1.2695205763021
scalar dtelecom_network.client[3] 	downloads[3] 	12077
scalar dtelecom_network.client[3] 	avg_time[3] 	0.011148767854
scalar dtelecom_network.client[4] 	hdistance[4] 	1.2802345058627
scalar dtelecom_network.client[4] 	downloads[4] 	11940
scalar dtelecom_network.client[4] 	avg_time[4] 	0.050575573157
scalar dtelecom_network.client[8] 	hdistance[8] 	1.7729897079742
scalar dtelecom_network.client[8] 	downloads[8] 	11951
scalar dtelecom_network.client[8] 	avg_time[8] 	0.015305640072
scalar dtelecom_network.client[9] 	hdistance[9] 	1.6493495732869
scalar dtelecom_network.client[9] 	downloads[9] 	12069
scalar dtelecom_network.client[9] 	avg_time[9] 	0.01491530486
scalar dtelecom_network.client[17] 	hdistance[17] 	1.7031275720165
scalar dtelecom_network.client[17] 	downloads[17] 	12150
scalar dtelecom_network.client[17] 	avg_time[17] 	0.013610839879
scalar dtelecom_network.client[22] 	hdistance[22] 	1.7800976595386
scalar dtelecom_network.client[22] 	downloads[22] 	11878
scalar dtelecom_network.client[22] 	avg_time[22] 	0.015280558508
scalar dtelecom_network.client[23] 	hdistance[23] 	1.6505385392124
scalar dtelecom_network.client[23] 	downloads[23] 	11884
scalar dtelecom_network.client[23] 	avg_time[23] 	0.013561888445
scalar dtelecom_network.client[28] 	hdistance[28] 	1.7839677338039
scalar dtelecom_network.client[28] 	downloads[28] 	11901
scalar dtelecom_network.client[28] 	avg_time[28] 	0.016996708946
scalar dtelecom_network.client[30] 	hdistance[30] 	1.8025943788458
scalar dtelecom_network.client[30] 	downloads[30] 	12026
scalar dtelecom_network.client[30] 	avg_time[30] 	0.014681268797
scalar dtelecom_network.client[31] 	hdistance[31] 	1.7991840812588
scalar dtelecom_network.client[31] 	downloads[31] 	12011
scalar dtelecom_network.client[31] 	avg_time[31] 	0.016984499687
scalar dtelecom_network.client[32] 	hdistance[32] 	1.7975698253312
scalar dtelecom_network.client[32] 	downloads[32] 	11851
scalar dtelecom_network.client[32] 	avg_time[32] 	0.012857967412
scalar dtelecom_network.client[33] 	hdistance[33] 	1.6956991930788
scalar dtelecom_network.client[33] 	downloads[33] 	12021
scalar dtelecom_network.client[33] 	avg_time[33] 	0.014343502535
scalar dtelecom_network.client[36] 	hdistance[36] 	1.772659238317
scalar dtelecom_network.client[36] 	downloads[36] 	12026
scalar dtelecom_network.client[36] 	avg_time[36] 	0.014833068258
scalar dtelecom_network.client[37] 	hdistance[37] 	1.8038090485695
scalar dtelecom_network.client[37] 	downloads[37] 	12024
scalar dtelecom_network.client[37] 	avg_time[37] 	0.015053962751
scalar dtelecom_network.client[40] 	hdistance[40] 	1.6598429144385
scalar dtelecom_network.client[40] 	downloads[40] 	11968
scalar dtelecom_network.client[40] 	avg_time[40] 	0.015251763734
scalar dtelecom_network.client[42] 	hdistance[42] 	1.7632110400539
scalar dtelecom_network.client[42] 	downloads[42] 	11884
scalar dtelecom_network.client[42] 	avg_time[42] 	0.015838798293
scalar dtelecom_network.client[45] 	hdistance[45] 	1.7485158311346
scalar dtelecom_network.client[45] 	downloads[45] 	12128
scalar dtelecom_network.client[45] 	avg_time[45] 	0.015228180476
scalar dtelecom_network.client[46] 	hdistance[46] 	1.7669894736842
scalar dtelecom_network.client[46] 	downloads[46] 	11875
scalar dtelecom_network.client[46] 	avg_time[46] 	0.016289402331
scalar dtelecom_network.client[48] 	hdistance[48] 	1.7888644812437
scalar dtelecom_network.client[48] 	downloads[48] 	11836
scalar dtelecom_network.client[48] 	avg_time[48] 	0.015375067443
scalar dtelecom_network.client[49] 	hdistance[49] 	1.8047736625514
scalar dtelecom_network.client[49] 	downloads[49] 	12150
scalar dtelecom_network.client[49] 	avg_time[49] 	0.01487119726
scalar dtelecom_network.client[50] 	hdistance[50] 	1.7598846787479
scalar dtelecom_network.client[50] 	downloads[50] 	12140
scalar dtelecom_network.client[50] 	avg_time[50] 	0.014402865548
scalar dtelecom_network.client[51] 	hdistance[51] 	1.763184162369
scalar dtelecom_network.client[51] 	downloads[51] 	12022
scalar dtelecom_network.client[51] 	avg_time[51] 	0.014766599151
scalar dtelecom_network.client[53] 	hdistance[53] 	1.7965640415037
scalar dtelecom_network.client[53] 	downloads[53] 	11758
scalar dtelecom_network.client[53] 	avg_time[53] 	0.01425309188
scalar dtelecom_network.client[54] 	hdistance[54] 	1.7493414553836
scalar dtelecom_network.client[54] 	downloads[54] 	12148
scalar dtelecom_network.client[54] 	avg_time[54] 	0.015457095964
scalar dtelecom_network.client[55] 	hdistance[55] 	1.7349107513491
scalar dtelecom_network.client[55] 	downloads[55] 	12045
scalar dtelecom_network.client[55] 	avg_time[55] 	0.019130951758
scalar dtelecom_network.client[56] 	hdistance[56] 	1.7683719380103
scalar dtelecom_network.client[56] 	downloads[56] 	12002
scalar dtelecom_network.client[56] 	avg_time[56] 	0.01440258631
scalar dtelecom_network.client[57] 	hdistance[57] 	1.7772539288668
scalar dtelecom_network.client[57] 	downloads[57] 	12090
scalar dtelecom_network.client[57] 	avg_time[57] 	0.014113289422
scalar dtelecom_network.client[58] 	hdistance[58] 	1.7732533932884
scalar dtelecom_network.client[58] 	downloads[58] 	12009
scalar dtelecom_network.client[58] 	avg_time[58] 	0.017308913222
scalar dtelecom_network.client[59] 	hdistance[59] 	1.781068524971
scalar dtelecom_network.client[59] 	downloads[59] 	12054
scalar dtelecom_network.client[59] 	avg_time[59] 	0.058822152463
scalar dtelecom_network.client[62] 	hdistance[62] 	2.2840671735316
scalar dtelecom_network.client[62] 	downloads[62] 	11969
scalar dtelecom_network.client[62] 	avg_time[62] 	0.059727052724
scalar dtelecom_network.client[66] 	hdistance[66] 	1.9288101604278
scalar dtelecom_network.client[66] 	downloads[66] 	11968
scalar dtelecom_network.client[66] 	avg_time[66] 	0.089820445537
scalar dtelecom_network.client[67] 	hdistance[67] 	1.8907062573394
scalar dtelecom_network.client[67] 	downloads[67] 	11922
scalar dtelecom_network.client[67] 	avg_time[67] 	0.073163502889
