version 2
run General-78-20160825-07:27:41-24543
attr D ffc0.1
attr F nrr
attr R lru
attr a 0.9
attr configname General
attr datetime 20160825-07:27:41
attr experiment General
attr inifile hw5115/scenario_C/omnetp.ini
attr iterationvars "$net=dtelecom, $rep=9, $a=0.9, $F=nrr, $D=ffc0.1, $R=lru, $window=60, $variance=0.05, $mytime=600"
attr iterationvars2 "$net=dtelecom, $rep=9, $a=0.9, $F=nrr, $D=ffc0.1, $R=lru, $window=60, $variance=0.05, $mytime=600, $repetition=0"
attr measurement "$net=dtelecom, $rep=9, $a=0.9, $F=nrr, $D=ffc0.1, $R=lru, $window=60, $variance=0.05, $mytime=600"
attr mytime 600
attr net dtelecom
attr network networks.${net=dtelecom}_network
attr processid 24543
attr rep 9
attr repetition 0
attr replication #0
attr resultdir results
attr runnumber 78
attr seedset 9
attr variance 0.05
attr window 60

scalar . 	a 	0.9
scalar . 	mytime 	600
scalar . 	rep 	9
scalar . 	variance 	0.05
scalar . 	window 	60
scalar dtelecom_network.content_distribution 	repo-0 	1
scalar dtelecom_network.content_distribution 	repo-1 	5
scalar dtelecom_network.content_distribution 	repo-2 	22
scalar dtelecom_network.content_distribution 	repo-3 	32
scalar dtelecom_network.content_distribution 	repo-4 	3
scalar dtelecom_network.content_distribution 	repo-5 	12
scalar dtelecom_network.content_distribution 	repo-6 	64
scalar dtelecom_network.content_distribution 	repo-7 	51
scalar dtelecom_network.content_distribution 	repo-8 	23
scalar dtelecom_network.content_distribution 	repo-9 	8
scalar dtelecom_network.content_distribution 	repo-10 	24
scalar dtelecom_network.content_distribution 	repo-11 	43
scalar dtelecom_network.content_distribution 	repo-12 	7
scalar dtelecom_network.content_distribution 	repo-13 	45
scalar dtelecom_network.content_distribution 	repo-14 	60
scalar dtelecom_network.content_distribution 	repo-15 	34
scalar dtelecom_network.content_distribution 	client-0 	46
scalar dtelecom_network.content_distribution 	client-1 	30
scalar dtelecom_network.content_distribution 	client-2 	8
scalar dtelecom_network.content_distribution 	client-3 	49
scalar dtelecom_network.content_distribution 	client-4 	66
scalar dtelecom_network.content_distribution 	client-5 	58
scalar dtelecom_network.content_distribution 	client-6 	32
scalar dtelecom_network.content_distribution 	client-7 	40
scalar dtelecom_network.content_distribution 	client-8 	42
scalar dtelecom_network.content_distribution 	client-9 	45
scalar dtelecom_network.content_distribution 	client-10 	33
scalar dtelecom_network.content_distribution 	client-11 	28
scalar dtelecom_network.content_distribution 	client-12 	3
scalar dtelecom_network.content_distribution 	client-13 	57
scalar dtelecom_network.content_distribution 	client-14 	50
scalar dtelecom_network.content_distribution 	client-15 	17
scalar dtelecom_network.content_distribution 	client-16 	59
scalar dtelecom_network.content_distribution 	client-17 	48
scalar dtelecom_network.content_distribution 	client-18 	23
scalar dtelecom_network.content_distribution 	client-19 	22
scalar dtelecom_network.content_distribution 	client-20 	67
scalar dtelecom_network.content_distribution 	client-21 	62
scalar dtelecom_network.content_distribution 	client-22 	56
scalar dtelecom_network.content_distribution 	client-23 	55
scalar dtelecom_network.content_distribution 	client-24 	53
scalar dtelecom_network.content_distribution 	client-25 	36
scalar dtelecom_network.content_distribution 	client-26 	51
scalar dtelecom_network.content_distribution 	client-27 	37
scalar dtelecom_network.content_distribution 	client-28 	54
scalar dtelecom_network.content_distribution 	client-29 	4
scalar dtelecom_network.content_distribution 	client-30 	31
scalar dtelecom_network.content_distribution 	client-31 	9
scalar dtelecom_network.content_distribution 	repo-0_card 	6357
scalar dtelecom_network.content_distribution 	repo-0_price 	0
scalar dtelecom_network.content_distribution 	repo-1_card 	6265
scalar dtelecom_network.content_distribution 	repo-1_price 	0
scalar dtelecom_network.content_distribution 	repo-2_card 	6375
scalar dtelecom_network.content_distribution 	repo-2_price 	0
scalar dtelecom_network.content_distribution 	repo-3_card 	6158
scalar dtelecom_network.content_distribution 	repo-3_price 	0
scalar dtelecom_network.content_distribution 	repo-4_card 	6159
scalar dtelecom_network.content_distribution 	repo-4_price 	0
scalar dtelecom_network.content_distribution 	repo-5_card 	6389
scalar dtelecom_network.content_distribution 	repo-5_price 	0
scalar dtelecom_network.content_distribution 	repo-6_card 	6324
scalar dtelecom_network.content_distribution 	repo-6_price 	0
scalar dtelecom_network.content_distribution 	repo-7_card 	6320
scalar dtelecom_network.content_distribution 	repo-7_price 	0
scalar dtelecom_network.content_distribution 	repo-8_card 	6094
scalar dtelecom_network.content_distribution 	repo-8_price 	0
scalar dtelecom_network.content_distribution 	repo-9_card 	6152
scalar dtelecom_network.content_distribution 	repo-9_price 	0
scalar dtelecom_network.content_distribution 	repo-10_card 	6306
scalar dtelecom_network.content_distribution 	repo-10_price 	0
scalar dtelecom_network.content_distribution 	repo-11_card 	6181
scalar dtelecom_network.content_distribution 	repo-11_price 	0
scalar dtelecom_network.content_distribution 	repo-12_card 	6224
scalar dtelecom_network.content_distribution 	repo-12_price 	0
scalar dtelecom_network.content_distribution 	repo-13_card 	6286
scalar dtelecom_network.content_distribution 	repo-13_price 	0
scalar dtelecom_network.content_distribution 	repo-14_card 	6172
scalar dtelecom_network.content_distribution 	repo-14_price 	0
scalar dtelecom_network.content_distribution 	repo-15_card 	6238
scalar dtelecom_network.content_distribution 	repo-15_price 	0
scalar dtelecom_network.statistics 	stabilization_time 	6450.3
scalar dtelecom_network.statistics 	p_hit 	0.29822120782736
scalar dtelecom_network.statistics 	interests 	12508.397058824
scalar dtelecom_network.statistics 	data 	6852.6470588235
scalar dtelecom_network.statistics 	hdistance 	1.7066097244329
scalar dtelecom_network.statistics 	avg_time 	0.022880896892
scalar dtelecom_network.statistics 	downloads 	384553
scalar dtelecom_network.statistics 	total_cost 	0
scalar dtelecom_network.statistics 	total_replicas 	100000
scalar dtelecom_network.statistics 	inner_hit 	0.50552459608949
scalar dtelecom_network.node[0].core_layer 	interests[0] 	0
scalar dtelecom_network.node[0].core_layer 	data[0] 	0
scalar dtelecom_network.node[0].core_layer 	repo_int[0] 	190152
scalar dtelecom_network.node[0].content_store 	p_hit[0] 	-nan
scalar dtelecom_network.node[0].content_store 	hits[0] 	0
scalar dtelecom_network.node[0].content_store 	misses[0] 	0
scalar dtelecom_network.node[0].content_store 	decision_yes[0] 	0
scalar dtelecom_network.node[0].content_store 	decision_no[0] 	0
scalar dtelecom_network.node[0].content_store 	decision_ratio[0] 	0
scalar dtelecom_network.node[1].core_layer 	interests[1] 	152989
scalar dtelecom_network.node[1].core_layer 	repo_load[1] 	15695
scalar dtelecom_network.node[1].core_layer 	data[1] 	127631
scalar dtelecom_network.node[1].content_store 	p_hit[1] 	0.0631287216728
scalar dtelecom_network.node[1].content_store 	hits[1] 	9658
scalar dtelecom_network.node[1].content_store 	misses[1] 	143331
scalar dtelecom_network.node[1].content_store 	decision_yes[1] 	131
scalar dtelecom_network.node[1].content_store 	decision_no[1] 	143195
scalar dtelecom_network.node[1].content_store 	decision_ratio[1] 	0.00091400025117564
scalar dtelecom_network.node[2].core_layer 	interests[2] 	5667
scalar dtelecom_network.node[2].core_layer 	data[2] 	3490
scalar dtelecom_network.node[2].content_store 	p_hit[2] 	0.38415387330157
scalar dtelecom_network.node[2].content_store 	hits[2] 	2177
scalar dtelecom_network.node[2].content_store 	misses[2] 	3490
scalar dtelecom_network.node[2].content_store 	decision_yes[2] 	8
scalar dtelecom_network.node[2].content_store 	decision_no[2] 	3482
scalar dtelecom_network.node[2].content_store 	decision_ratio[2] 	0.0022922636103152
scalar dtelecom_network.node[3].core_layer 	interests[3] 	43494
scalar dtelecom_network.node[3].core_layer 	repo_load[3] 	13232
scalar dtelecom_network.node[3].core_layer 	data[3] 	19629
scalar dtelecom_network.node[3].content_store 	p_hit[3] 	0.24442451832437
scalar dtelecom_network.node[3].content_store 	hits[3] 	10631
scalar dtelecom_network.node[3].content_store 	misses[3] 	32863
scalar dtelecom_network.node[3].content_store 	decision_yes[3] 	61
scalar dtelecom_network.node[3].content_store 	decision_no[3] 	32800
scalar dtelecom_network.node[3].content_store 	decision_ratio[3] 	0.0018563038252031
scalar dtelecom_network.node[4].core_layer 	interests[4] 	52405
scalar dtelecom_network.node[4].core_layer 	data[4] 	39001
scalar dtelecom_network.node[4].content_store 	p_hit[4] 	0.25533823108482
scalar dtelecom_network.node[4].content_store 	hits[4] 	13381
scalar dtelecom_network.node[4].content_store 	misses[4] 	39024
scalar dtelecom_network.node[4].content_store 	decision_yes[4] 	76
scalar dtelecom_network.node[4].content_store 	decision_no[4] 	38925
scalar dtelecom_network.node[4].content_store 	decision_ratio[4] 	0.0019486679828722
scalar dtelecom_network.node[5].core_layer 	interests[5] 	16102
scalar dtelecom_network.node[5].core_layer 	repo_load[5] 	11354
scalar dtelecom_network.node[5].core_layer 	data[5] 	0
scalar dtelecom_network.node[5].content_store 	p_hit[5] 	0.29487020245932
scalar dtelecom_network.node[5].content_store 	hits[5] 	4748
scalar dtelecom_network.node[5].content_store 	misses[5] 	11354
scalar dtelecom_network.node[5].content_store 	decision_yes[5] 	52
scalar dtelecom_network.node[5].content_store 	decision_no[5] 	11302
scalar dtelecom_network.node[5].content_store 	decision_ratio[5] 	0.0045798837414127
scalar dtelecom_network.node[6].core_layer 	interests[6] 	0
scalar dtelecom_network.node[6].core_layer 	data[6] 	0
scalar dtelecom_network.node[6].content_store 	p_hit[6] 	-nan
scalar dtelecom_network.node[6].content_store 	hits[6] 	0
scalar dtelecom_network.node[6].content_store 	misses[6] 	0
scalar dtelecom_network.node[6].content_store 	decision_yes[6] 	0
scalar dtelecom_network.node[6].content_store 	decision_no[6] 	0
scalar dtelecom_network.node[6].content_store 	decision_ratio[6] 	0
scalar dtelecom_network.node[7].core_layer 	interests[7] 	13986
scalar dtelecom_network.node[7].core_layer 	repo_load[7] 	11015
scalar dtelecom_network.node[7].core_layer 	data[7] 	0
scalar dtelecom_network.node[7].content_store 	p_hit[7] 	0.21242671242671
scalar dtelecom_network.node[7].content_store 	hits[7] 	2971
scalar dtelecom_network.node[7].content_store 	misses[7] 	11015
scalar dtelecom_network.node[7].content_store 	decision_yes[7] 	46
scalar dtelecom_network.node[7].content_store 	decision_no[7] 	10969
scalar dtelecom_network.node[7].content_store 	decision_ratio[7] 	0.0041761234679982
scalar dtelecom_network.node[8].core_layer 	interests[8] 	25228
scalar dtelecom_network.node[8].core_layer 	repo_load[8] 	11818
scalar dtelecom_network.node[8].core_layer 	data[8] 	8726
scalar dtelecom_network.node[8].content_store 	p_hit[8] 	0.18554780402727
scalar dtelecom_network.node[8].content_store 	hits[8] 	4681
scalar dtelecom_network.node[8].content_store 	misses[8] 	20547
scalar dtelecom_network.node[8].content_store 	decision_yes[8] 	60
scalar dtelecom_network.node[8].content_store 	decision_no[8] 	20484
scalar dtelecom_network.node[8].content_store 	decision_ratio[8] 	0.0029205607476636
scalar dtelecom_network.node[9].core_layer 	interests[9] 	14154
scalar dtelecom_network.node[9].core_layer 	data[9] 	8878
scalar dtelecom_network.node[9].content_store 	p_hit[9] 	0.37275681786068
scalar dtelecom_network.node[9].content_store 	hits[9] 	5276
scalar dtelecom_network.node[9].content_store 	misses[9] 	8878
scalar dtelecom_network.node[9].content_store 	decision_yes[9] 	20
scalar dtelecom_network.node[9].content_store 	decision_no[9] 	8858
scalar dtelecom_network.node[9].content_store 	decision_ratio[9] 	0.0022527596305474
scalar dtelecom_network.node[10].core_layer 	interests[10] 	0
scalar dtelecom_network.node[10].core_layer 	data[10] 	0
scalar dtelecom_network.node[10].content_store 	p_hit[10] 	-nan
scalar dtelecom_network.node[10].content_store 	hits[10] 	0
scalar dtelecom_network.node[10].content_store 	misses[10] 	0
scalar dtelecom_network.node[10].content_store 	decision_yes[10] 	0
scalar dtelecom_network.node[10].content_store 	decision_no[10] 	0
scalar dtelecom_network.node[10].content_store 	decision_ratio[10] 	0
scalar dtelecom_network.node[11].core_layer 	interests[11] 	0
scalar dtelecom_network.node[11].core_layer 	data[11] 	0
scalar dtelecom_network.node[11].content_store 	p_hit[11] 	-nan
scalar dtelecom_network.node[11].content_store 	hits[11] 	0
scalar dtelecom_network.node[11].content_store 	misses[11] 	0
scalar dtelecom_network.node[11].content_store 	decision_yes[11] 	0
scalar dtelecom_network.node[11].content_store 	decision_no[11] 	0
scalar dtelecom_network.node[11].content_store 	decision_ratio[11] 	0
scalar dtelecom_network.node[12].core_layer 	interests[12] 	13714
scalar dtelecom_network.node[12].core_layer 	repo_load[12] 	11337
scalar dtelecom_network.node[12].core_layer 	data[12] 	0
scalar dtelecom_network.node[12].content_store 	p_hit[12] 	0.17332652763599
scalar dtelecom_network.node[12].content_store 	hits[12] 	2377
scalar dtelecom_network.node[12].content_store 	misses[12] 	11337
scalar dtelecom_network.node[12].content_store 	decision_yes[12] 	42
scalar dtelecom_network.node[12].content_store 	decision_no[12] 	11295
scalar dtelecom_network.node[12].content_store 	decision_ratio[12] 	0.0037046837787775
scalar dtelecom_network.node[13].core_layer 	interests[13] 	0
scalar dtelecom_network.node[13].core_layer 	data[13] 	0
scalar dtelecom_network.node[13].content_store 	p_hit[13] 	-nan
scalar dtelecom_network.node[13].content_store 	hits[13] 	0
scalar dtelecom_network.node[13].content_store 	misses[13] 	0
scalar dtelecom_network.node[13].content_store 	decision_yes[13] 	0
scalar dtelecom_network.node[13].content_store 	decision_no[13] 	0
scalar dtelecom_network.node[13].content_store 	decision_ratio[13] 	0
scalar dtelecom_network.node[14].core_layer 	interests[14] 	0
scalar dtelecom_network.node[14].core_layer 	data[14] 	0
scalar dtelecom_network.node[14].content_store 	p_hit[14] 	-nan
scalar dtelecom_network.node[14].content_store 	hits[14] 	0
scalar dtelecom_network.node[14].content_store 	misses[14] 	0
scalar dtelecom_network.node[14].content_store 	decision_yes[14] 	0
scalar dtelecom_network.node[14].content_store 	decision_no[14] 	0
scalar dtelecom_network.node[14].content_store 	decision_ratio[14] 	0
scalar dtelecom_network.node[15].core_layer 	interests[15] 	0
scalar dtelecom_network.node[15].core_layer 	data[15] 	0
scalar dtelecom_network.node[15].content_store 	p_hit[15] 	-nan
scalar dtelecom_network.node[15].content_store 	hits[15] 	0
scalar dtelecom_network.node[15].content_store 	misses[15] 	0
scalar dtelecom_network.node[15].content_store 	decision_yes[15] 	0
scalar dtelecom_network.node[15].content_store 	decision_no[15] 	0
scalar dtelecom_network.node[15].content_store 	decision_ratio[15] 	0
scalar dtelecom_network.node[16].core_layer 	interests[16] 	0
scalar dtelecom_network.node[16].core_layer 	data[16] 	0
scalar dtelecom_network.node[16].content_store 	p_hit[16] 	-nan
scalar dtelecom_network.node[16].content_store 	hits[16] 	0
scalar dtelecom_network.node[16].content_store 	misses[16] 	0
scalar dtelecom_network.node[16].content_store 	decision_yes[16] 	0
scalar dtelecom_network.node[16].content_store 	decision_no[16] 	0
scalar dtelecom_network.node[16].content_store 	decision_ratio[16] 	0
scalar dtelecom_network.node[17].core_layer 	interests[17] 	13425
scalar dtelecom_network.node[17].core_layer 	data[17] 	9192
scalar dtelecom_network.node[17].content_store 	p_hit[17] 	0.31500931098696
scalar dtelecom_network.node[17].content_store 	hits[17] 	4229
scalar dtelecom_network.node[17].content_store 	misses[17] 	9196
scalar dtelecom_network.node[17].content_store 	decision_yes[17] 	18
scalar dtelecom_network.node[17].content_store 	decision_no[17] 	9174
scalar dtelecom_network.node[17].content_store 	decision_ratio[17] 	0.0019582245430809
scalar dtelecom_network.node[18].core_layer 	interests[18] 	0
scalar dtelecom_network.node[18].core_layer 	data[18] 	0
scalar dtelecom_network.node[18].content_store 	p_hit[18] 	-nan
scalar dtelecom_network.node[18].content_store 	hits[18] 	0
scalar dtelecom_network.node[18].content_store 	misses[18] 	0
scalar dtelecom_network.node[18].content_store 	decision_yes[18] 	0
scalar dtelecom_network.node[18].content_store 	decision_no[18] 	0
scalar dtelecom_network.node[18].content_store 	decision_ratio[18] 	0
scalar dtelecom_network.node[19].core_layer 	interests[19] 	0
scalar dtelecom_network.node[19].core_layer 	data[19] 	0
scalar dtelecom_network.node[19].content_store 	p_hit[19] 	-nan
scalar dtelecom_network.node[19].content_store 	hits[19] 	0
scalar dtelecom_network.node[19].content_store 	misses[19] 	0
scalar dtelecom_network.node[19].content_store 	decision_yes[19] 	0
scalar dtelecom_network.node[19].content_store 	decision_no[19] 	0
scalar dtelecom_network.node[19].content_store 	decision_ratio[19] 	0
scalar dtelecom_network.node[20].core_layer 	interests[20] 	0
scalar dtelecom_network.node[20].core_layer 	data[20] 	0
scalar dtelecom_network.node[20].content_store 	p_hit[20] 	-nan
scalar dtelecom_network.node[20].content_store 	hits[20] 	0
scalar dtelecom_network.node[20].content_store 	misses[20] 	0
scalar dtelecom_network.node[20].content_store 	decision_yes[20] 	0
scalar dtelecom_network.node[20].content_store 	decision_no[20] 	0
scalar dtelecom_network.node[20].content_store 	decision_ratio[20] 	0
scalar dtelecom_network.node[21].core_layer 	interests[21] 	0
scalar dtelecom_network.node[21].core_layer 	data[21] 	0
scalar dtelecom_network.node[21].content_store 	p_hit[21] 	-nan
scalar dtelecom_network.node[21].content_store 	hits[21] 	0
scalar dtelecom_network.node[21].content_store 	misses[21] 	0
scalar dtelecom_network.node[21].content_store 	decision_yes[21] 	0
scalar dtelecom_network.node[21].content_store 	decision_no[21] 	0
scalar dtelecom_network.node[21].content_store 	decision_ratio[21] 	0
scalar dtelecom_network.node[22].core_layer 	interests[22] 	25318
scalar dtelecom_network.node[22].core_layer 	repo_load[22] 	12233
scalar dtelecom_network.node[22].core_layer 	data[22] 	8562
scalar dtelecom_network.node[22].content_store 	p_hit[22] 	0.17864760249625
scalar dtelecom_network.node[22].content_store 	hits[22] 	4523
scalar dtelecom_network.node[22].content_store 	misses[22] 	20795
scalar dtelecom_network.node[22].content_store 	decision_yes[22] 	43
scalar dtelecom_network.node[22].content_store 	decision_no[22] 	20752
scalar dtelecom_network.node[22].content_store 	decision_ratio[22] 	0.0020678047607598
scalar dtelecom_network.node[23].core_layer 	interests[23] 	36620
scalar dtelecom_network.node[23].core_layer 	repo_load[23] 	11884
scalar dtelecom_network.node[23].core_layer 	data[23] 	18357
scalar dtelecom_network.node[23].content_store 	p_hit[23] 	0.17419442927362
scalar dtelecom_network.node[23].content_store 	hits[23] 	6379
scalar dtelecom_network.node[23].content_store 	misses[23] 	30241
scalar dtelecom_network.node[23].content_store 	decision_yes[23] 	51
scalar dtelecom_network.node[23].content_store 	decision_no[23] 	30190
scalar dtelecom_network.node[23].content_store 	decision_ratio[23] 	0.0016864521675871
scalar dtelecom_network.node[24].core_layer 	interests[24] 	13971
scalar dtelecom_network.node[24].core_layer 	repo_load[24] 	11503
scalar dtelecom_network.node[24].core_layer 	data[24] 	0
scalar dtelecom_network.node[24].content_store 	p_hit[24] 	0.17665163553074
scalar dtelecom_network.node[24].content_store 	hits[24] 	2468
scalar dtelecom_network.node[24].content_store 	misses[24] 	11503
scalar dtelecom_network.node[24].content_store 	decision_yes[24] 	40
scalar dtelecom_network.node[24].content_store 	decision_no[24] 	11463
scalar dtelecom_network.node[24].content_store 	decision_ratio[24] 	0.0034773537338086
scalar dtelecom_network.node[25].core_layer 	interests[25] 	0
scalar dtelecom_network.node[25].core_layer 	data[25] 	0
scalar dtelecom_network.node[25].content_store 	p_hit[25] 	-nan
scalar dtelecom_network.node[25].content_store 	hits[25] 	0
scalar dtelecom_network.node[25].content_store 	misses[25] 	0
scalar dtelecom_network.node[25].content_store 	decision_yes[25] 	0
scalar dtelecom_network.node[25].content_store 	decision_no[25] 	0
scalar dtelecom_network.node[25].content_store 	decision_ratio[25] 	0
scalar dtelecom_network.node[26].core_layer 	interests[26] 	1293
scalar dtelecom_network.node[26].core_layer 	data[26] 	405
scalar dtelecom_network.node[26].content_store 	p_hit[26] 	0.68677494199536
scalar dtelecom_network.node[26].content_store 	hits[26] 	888
scalar dtelecom_network.node[26].content_store 	misses[26] 	405
scalar dtelecom_network.node[26].content_store 	decision_yes[26] 	1
scalar dtelecom_network.node[26].content_store 	decision_no[26] 	404
scalar dtelecom_network.node[26].content_store 	decision_ratio[26] 	0.0024691358024691
scalar dtelecom_network.node[27].core_layer 	interests[27] 	0
scalar dtelecom_network.node[27].core_layer 	data[27] 	0
scalar dtelecom_network.node[27].content_store 	p_hit[27] 	-nan
scalar dtelecom_network.node[27].content_store 	hits[27] 	0
scalar dtelecom_network.node[27].content_store 	misses[27] 	0
scalar dtelecom_network.node[27].content_store 	decision_yes[27] 	0
scalar dtelecom_network.node[27].content_store 	decision_no[27] 	0
scalar dtelecom_network.node[27].content_store 	decision_ratio[27] 	0
scalar dtelecom_network.node[28].core_layer 	interests[28] 	13594
scalar dtelecom_network.node[28].core_layer 	data[28] 	8763
scalar dtelecom_network.node[28].content_store 	p_hit[28] 	0.35537737237016
scalar dtelecom_network.node[28].content_store 	hits[28] 	4831
scalar dtelecom_network.node[28].content_store 	misses[28] 	8763
scalar dtelecom_network.node[28].content_store 	decision_yes[28] 	15
scalar dtelecom_network.node[28].content_store 	decision_no[28] 	8748
scalar dtelecom_network.node[28].content_store 	decision_ratio[28] 	0.0017117425539199
scalar dtelecom_network.node[29].core_layer 	interests[29] 	0
scalar dtelecom_network.node[29].core_layer 	data[29] 	0
scalar dtelecom_network.node[29].content_store 	p_hit[29] 	-nan
scalar dtelecom_network.node[29].content_store 	hits[29] 	0
scalar dtelecom_network.node[29].content_store 	misses[29] 	0
scalar dtelecom_network.node[29].content_store 	decision_yes[29] 	0
scalar dtelecom_network.node[29].content_store 	decision_no[29] 	0
scalar dtelecom_network.node[29].content_store 	decision_ratio[29] 	0
scalar dtelecom_network.node[30].core_layer 	interests[30] 	12771
scalar dtelecom_network.node[30].core_layer 	data[30] 	8889
scalar dtelecom_network.node[30].content_store 	p_hit[30] 	0.30381332706914
scalar dtelecom_network.node[30].content_store 	hits[30] 	3880
scalar dtelecom_network.node[30].content_store 	misses[30] 	8891
scalar dtelecom_network.node[30].content_store 	decision_yes[30] 	14
scalar dtelecom_network.node[30].content_store 	decision_no[30] 	8875
scalar dtelecom_network.node[30].content_store 	decision_ratio[30] 	0.0015749803127461
scalar dtelecom_network.node[31].core_layer 	interests[31] 	13268
scalar dtelecom_network.node[31].core_layer 	data[31] 	8829
scalar dtelecom_network.node[31].content_store 	p_hit[31] 	0.33456436539041
scalar dtelecom_network.node[31].content_store 	hits[31] 	4439
scalar dtelecom_network.node[31].content_store 	misses[31] 	8829
scalar dtelecom_network.node[31].content_store 	decision_yes[31] 	10
scalar dtelecom_network.node[31].content_store 	decision_no[31] 	8819
scalar dtelecom_network.node[31].content_store 	decision_ratio[31] 	0.0011326311020501
scalar dtelecom_network.node[32].core_layer 	interests[32] 	24888
scalar dtelecom_network.node[32].core_layer 	repo_load[32] 	11677
scalar dtelecom_network.node[32].core_layer 	data[32] 	8689
scalar dtelecom_network.node[32].content_store 	p_hit[32] 	0.18169398907104
scalar dtelecom_network.node[32].content_store 	hits[32] 	4522
scalar dtelecom_network.node[32].content_store 	misses[32] 	20366
scalar dtelecom_network.node[32].content_store 	decision_yes[32] 	50
scalar dtelecom_network.node[32].content_store 	decision_no[32] 	20316
scalar dtelecom_network.node[32].content_store 	decision_ratio[32] 	0.0024550721791221
scalar dtelecom_network.node[33].core_layer 	interests[33] 	13971
scalar dtelecom_network.node[33].core_layer 	data[33] 	8870
scalar dtelecom_network.node[33].content_store 	p_hit[33] 	0.36504187245008
scalar dtelecom_network.node[33].content_store 	hits[33] 	5100
scalar dtelecom_network.node[33].content_store 	misses[33] 	8871
scalar dtelecom_network.node[33].content_store 	decision_yes[33] 	15
scalar dtelecom_network.node[33].content_store 	decision_no[33] 	8855
scalar dtelecom_network.node[33].content_store 	decision_ratio[33] 	0.0016910935738444
scalar dtelecom_network.node[34].core_layer 	interests[34] 	13884
scalar dtelecom_network.node[34].core_layer 	repo_load[34] 	11283
scalar dtelecom_network.node[34].core_layer 	data[34] 	0
scalar dtelecom_network.node[34].content_store 	p_hit[34] 	0.18733794295592
scalar dtelecom_network.node[34].content_store 	hits[34] 	2601
scalar dtelecom_network.node[34].content_store 	misses[34] 	11283
scalar dtelecom_network.node[34].content_store 	decision_yes[34] 	55
scalar dtelecom_network.node[34].content_store 	decision_no[34] 	11228
scalar dtelecom_network.node[34].content_store 	decision_ratio[34] 	0.0048745900912878
scalar dtelecom_network.node[35].core_layer 	interests[35] 	0
scalar dtelecom_network.node[35].core_layer 	data[35] 	0
scalar dtelecom_network.node[35].content_store 	p_hit[35] 	-nan
scalar dtelecom_network.node[35].content_store 	hits[35] 	0
scalar dtelecom_network.node[35].content_store 	misses[35] 	0
scalar dtelecom_network.node[35].content_store 	decision_yes[35] 	0
scalar dtelecom_network.node[35].content_store 	decision_no[35] 	0
scalar dtelecom_network.node[35].content_store 	decision_ratio[35] 	0
scalar dtelecom_network.node[36].core_layer 	interests[36] 	13210
scalar dtelecom_network.node[36].core_layer 	data[36] 	8826
scalar dtelecom_network.node[36].content_store 	p_hit[36] 	0.33202119606359
scalar dtelecom_network.node[36].content_store 	hits[36] 	4386
scalar dtelecom_network.node[36].content_store 	misses[36] 	8824
scalar dtelecom_network.node[36].content_store 	decision_yes[36] 	25
scalar dtelecom_network.node[36].content_store 	decision_no[36] 	8801
scalar dtelecom_network.node[36].content_store 	decision_ratio[36] 	0.0028325402220712
scalar dtelecom_network.node[37].core_layer 	interests[37] 	13383
scalar dtelecom_network.node[37].core_layer 	data[37] 	8975
scalar dtelecom_network.node[37].content_store 	p_hit[37] 	0.3292236419338
scalar dtelecom_network.node[37].content_store 	hits[37] 	4406
scalar dtelecom_network.node[37].content_store 	misses[37] 	8977
scalar dtelecom_network.node[37].content_store 	decision_yes[37] 	14
scalar dtelecom_network.node[37].content_store 	decision_no[37] 	8961
scalar dtelecom_network.node[37].content_store 	decision_ratio[37] 	0.0015598885793872
scalar dtelecom_network.node[38].core_layer 	interests[38] 	0
scalar dtelecom_network.node[38].core_layer 	data[38] 	0
scalar dtelecom_network.node[38].content_store 	p_hit[38] 	-nan
scalar dtelecom_network.node[38].content_store 	hits[38] 	0
scalar dtelecom_network.node[38].content_store 	misses[38] 	0
scalar dtelecom_network.node[38].content_store 	decision_yes[38] 	0
scalar dtelecom_network.node[38].content_store 	decision_no[38] 	0
scalar dtelecom_network.node[38].content_store 	decision_ratio[38] 	0
scalar dtelecom_network.node[39].core_layer 	interests[39] 	0
scalar dtelecom_network.node[39].core_layer 	data[39] 	0
scalar dtelecom_network.node[39].content_store 	p_hit[39] 	-nan
scalar dtelecom_network.node[39].content_store 	hits[39] 	0
scalar dtelecom_network.node[39].content_store 	misses[39] 	0
scalar dtelecom_network.node[39].content_store 	decision_yes[39] 	0
scalar dtelecom_network.node[39].content_store 	decision_no[39] 	0
scalar dtelecom_network.node[39].content_store 	decision_ratio[39] 	0
scalar dtelecom_network.node[40].core_layer 	interests[40] 	15139
scalar dtelecom_network.node[40].core_layer 	data[40] 	9435
scalar dtelecom_network.node[40].content_store 	p_hit[40] 	0.37664310720655
scalar dtelecom_network.node[40].content_store 	hits[40] 	5702
scalar dtelecom_network.node[40].content_store 	misses[40] 	9437
scalar dtelecom_network.node[40].content_store 	decision_yes[40] 	19
scalar dtelecom_network.node[40].content_store 	decision_no[40] 	9416
scalar dtelecom_network.node[40].content_store 	decision_ratio[40] 	0.0020137784843667
scalar dtelecom_network.node[41].core_layer 	interests[41] 	0
scalar dtelecom_network.node[41].core_layer 	data[41] 	0
scalar dtelecom_network.node[41].content_store 	p_hit[41] 	-nan
scalar dtelecom_network.node[41].content_store 	hits[41] 	0
scalar dtelecom_network.node[41].content_store 	misses[41] 	0
scalar dtelecom_network.node[41].content_store 	decision_yes[41] 	0
scalar dtelecom_network.node[41].content_store 	decision_no[41] 	0
scalar dtelecom_network.node[41].content_store 	decision_ratio[41] 	0
scalar dtelecom_network.node[42].core_layer 	interests[42] 	13157
scalar dtelecom_network.node[42].core_layer 	data[42] 	8881
scalar dtelecom_network.node[42].content_store 	p_hit[42] 	0.32499809987079
scalar dtelecom_network.node[42].content_store 	hits[42] 	4276
scalar dtelecom_network.node[42].content_store 	misses[42] 	8881
scalar dtelecom_network.node[42].content_store 	decision_yes[42] 	24
scalar dtelecom_network.node[42].content_store 	decision_no[42] 	8857
scalar dtelecom_network.node[42].content_store 	decision_ratio[42] 	0.002702398378561
scalar dtelecom_network.node[43].core_layer 	interests[43] 	12213
scalar dtelecom_network.node[43].core_layer 	repo_load[43] 	10322
scalar dtelecom_network.node[43].core_layer 	data[43] 	0
scalar dtelecom_network.node[43].content_store 	p_hit[43] 	0.15483501187259
scalar dtelecom_network.node[43].content_store 	hits[43] 	1891
scalar dtelecom_network.node[43].content_store 	misses[43] 	10322
scalar dtelecom_network.node[43].content_store 	decision_yes[43] 	41
scalar dtelecom_network.node[43].content_store 	decision_no[43] 	10281
scalar dtelecom_network.node[43].content_store 	decision_ratio[43] 	0.0039720984305367
scalar dtelecom_network.node[44].core_layer 	interests[44] 	0
scalar dtelecom_network.node[44].core_layer 	data[44] 	0
scalar dtelecom_network.node[44].content_store 	p_hit[44] 	-nan
scalar dtelecom_network.node[44].content_store 	hits[44] 	0
scalar dtelecom_network.node[44].content_store 	misses[44] 	0
scalar dtelecom_network.node[44].content_store 	decision_yes[44] 	0
scalar dtelecom_network.node[44].content_store 	decision_no[44] 	0
scalar dtelecom_network.node[44].content_store 	decision_ratio[44] 	0
scalar dtelecom_network.node[45].core_layer 	interests[45] 	25855
scalar dtelecom_network.node[45].core_layer 	repo_load[45] 	12121
scalar dtelecom_network.node[45].core_layer 	data[45] 	9014
scalar dtelecom_network.node[45].content_store 	p_hit[45] 	0.18255656546123
scalar dtelecom_network.node[45].content_store 	hits[45] 	4720
scalar dtelecom_network.node[45].content_store 	misses[45] 	21135
scalar dtelecom_network.node[45].content_store 	decision_yes[45] 	46
scalar dtelecom_network.node[45].content_store 	decision_no[45] 	21089
scalar dtelecom_network.node[45].content_store 	decision_ratio[45] 	0.0021764845043766
scalar dtelecom_network.node[46].core_layer 	interests[46] 	13318
scalar dtelecom_network.node[46].core_layer 	data[46] 	8937
scalar dtelecom_network.node[46].content_store 	p_hit[46] 	0.32902838264004
scalar dtelecom_network.node[46].content_store 	hits[46] 	4382
scalar dtelecom_network.node[46].content_store 	misses[46] 	8936
scalar dtelecom_network.node[46].content_store 	decision_yes[46] 	12
scalar dtelecom_network.node[46].content_store 	decision_no[46] 	8925
scalar dtelecom_network.node[46].content_store 	decision_ratio[46] 	0.0013427324605572
scalar dtelecom_network.node[47].core_layer 	interests[47] 	0
scalar dtelecom_network.node[47].core_layer 	data[47] 	0
scalar dtelecom_network.node[47].content_store 	p_hit[47] 	-nan
scalar dtelecom_network.node[47].content_store 	hits[47] 	0
scalar dtelecom_network.node[47].content_store 	misses[47] 	0
scalar dtelecom_network.node[47].content_store 	decision_yes[47] 	0
scalar dtelecom_network.node[47].content_store 	decision_no[47] 	0
scalar dtelecom_network.node[47].content_store 	decision_ratio[47] 	0
scalar dtelecom_network.node[48].core_layer 	interests[48] 	13162
scalar dtelecom_network.node[48].core_layer 	data[48] 	8806
scalar dtelecom_network.node[48].content_store 	p_hit[48] 	0.33072481385808
scalar dtelecom_network.node[48].content_store 	hits[48] 	4353
scalar dtelecom_network.node[48].content_store 	misses[48] 	8809
scalar dtelecom_network.node[48].content_store 	decision_yes[48] 	15
scalar dtelecom_network.node[48].content_store 	decision_no[48] 	8791
scalar dtelecom_network.node[48].content_store 	decision_ratio[48] 	0.0017033840563252
scalar dtelecom_network.node[49].core_layer 	interests[49] 	12907
scalar dtelecom_network.node[49].core_layer 	data[49] 	8765
scalar dtelecom_network.node[49].content_store 	p_hit[49] 	0.3207561788177
scalar dtelecom_network.node[49].content_store 	hits[49] 	4140
scalar dtelecom_network.node[49].content_store 	misses[49] 	8767
scalar dtelecom_network.node[49].content_store 	decision_yes[49] 	17
scalar dtelecom_network.node[49].content_store 	decision_no[49] 	8748
scalar dtelecom_network.node[49].content_store 	decision_ratio[49] 	0.0019395322304621
scalar dtelecom_network.node[50].core_layer 	interests[50] 	13168
scalar dtelecom_network.node[50].core_layer 	data[50] 	9054
scalar dtelecom_network.node[50].content_store 	p_hit[50] 	0.31234811664642
scalar dtelecom_network.node[50].content_store 	hits[50] 	4113
scalar dtelecom_network.node[50].content_store 	misses[50] 	9055
scalar dtelecom_network.node[50].content_store 	decision_yes[50] 	14
scalar dtelecom_network.node[50].content_store 	decision_no[50] 	9040
scalar dtelecom_network.node[50].content_store 	decision_ratio[50] 	0.0015462778882262
scalar dtelecom_network.node[51].core_layer 	interests[51] 	25896
scalar dtelecom_network.node[51].core_layer 	repo_load[51] 	12387
scalar dtelecom_network.node[51].core_layer 	data[51] 	8688
scalar dtelecom_network.node[51].content_store 	p_hit[51] 	0.18612913191226
scalar dtelecom_network.node[51].content_store 	hits[51] 	4820
scalar dtelecom_network.node[51].content_store 	misses[51] 	21076
scalar dtelecom_network.node[51].content_store 	decision_yes[51] 	47
scalar dtelecom_network.node[51].content_store 	decision_no[51] 	21028
scalar dtelecom_network.node[51].content_store 	decision_ratio[51] 	0.0022301304863582
scalar dtelecom_network.node[52].core_layer 	interests[52] 	0
scalar dtelecom_network.node[52].core_layer 	data[52] 	0
scalar dtelecom_network.node[52].content_store 	p_hit[52] 	-nan
scalar dtelecom_network.node[52].content_store 	hits[52] 	0
scalar dtelecom_network.node[52].content_store 	misses[52] 	0
scalar dtelecom_network.node[52].content_store 	decision_yes[52] 	0
scalar dtelecom_network.node[52].content_store 	decision_no[52] 	0
scalar dtelecom_network.node[52].content_store 	decision_ratio[52] 	0
scalar dtelecom_network.node[53].core_layer 	interests[53] 	13133
scalar dtelecom_network.node[53].core_layer 	data[53] 	8873
scalar dtelecom_network.node[53].content_store 	p_hit[53] 	0.32429757100434
scalar dtelecom_network.node[53].content_store 	hits[53] 	4259
scalar dtelecom_network.node[53].content_store 	misses[53] 	8874
scalar dtelecom_network.node[53].content_store 	decision_yes[53] 	16
scalar dtelecom_network.node[53].content_store 	decision_no[53] 	8857
scalar dtelecom_network.node[53].content_store 	decision_ratio[53] 	0.0018032232615801
scalar dtelecom_network.node[54].core_layer 	interests[54] 	13292
scalar dtelecom_network.node[54].core_layer 	data[54] 	8947
scalar dtelecom_network.node[54].content_store 	p_hit[54] 	0.32681312067409
scalar dtelecom_network.node[54].content_store 	hits[54] 	4344
scalar dtelecom_network.node[54].content_store 	misses[54] 	8948
scalar dtelecom_network.node[54].content_store 	decision_yes[54] 	14
scalar dtelecom_network.node[54].content_store 	decision_no[54] 	8933
scalar dtelecom_network.node[54].content_store 	decision_ratio[54] 	0.0015647703140718
scalar dtelecom_network.node[55].core_layer 	interests[55] 	13608
scalar dtelecom_network.node[55].core_layer 	data[55] 	9085
scalar dtelecom_network.node[55].content_store 	p_hit[55] 	0.33223104056437
scalar dtelecom_network.node[55].content_store 	hits[55] 	4521
scalar dtelecom_network.node[55].content_store 	misses[55] 	9087
scalar dtelecom_network.node[55].content_store 	decision_yes[55] 	13
scalar dtelecom_network.node[55].content_store 	decision_no[55] 	9072
scalar dtelecom_network.node[55].content_store 	decision_ratio[55] 	0.001430930104568
scalar dtelecom_network.node[56].core_layer 	interests[56] 	12838
scalar dtelecom_network.node[56].core_layer 	data[56] 	8746
scalar dtelecom_network.node[56].content_store 	p_hit[56] 	0.31858544944695
scalar dtelecom_network.node[56].content_store 	hits[56] 	4090
scalar dtelecom_network.node[56].content_store 	misses[56] 	8748
scalar dtelecom_network.node[56].content_store 	decision_yes[56] 	10
scalar dtelecom_network.node[56].content_store 	decision_no[56] 	8736
scalar dtelecom_network.node[56].content_store 	decision_ratio[56] 	0.0011433798307798
scalar dtelecom_network.node[57].core_layer 	interests[57] 	12979
scalar dtelecom_network.node[57].core_layer 	data[57] 	8983
scalar dtelecom_network.node[57].content_store 	p_hit[57] 	0.30795901070961
scalar dtelecom_network.node[57].content_store 	hits[57] 	3997
scalar dtelecom_network.node[57].content_store 	misses[57] 	8982
scalar dtelecom_network.node[57].content_store 	decision_yes[57] 	18
scalar dtelecom_network.node[57].content_store 	decision_no[57] 	8965
scalar dtelecom_network.node[57].content_store 	decision_ratio[57] 	0.0020037849270845
scalar dtelecom_network.node[58].core_layer 	interests[58] 	13282
scalar dtelecom_network.node[58].core_layer 	data[58] 	8713
scalar dtelecom_network.node[58].content_store 	p_hit[58] 	0.34392410781509
scalar dtelecom_network.node[58].content_store 	hits[58] 	4568
scalar dtelecom_network.node[58].content_store 	misses[58] 	8714
scalar dtelecom_network.node[58].content_store 	decision_yes[58] 	21
scalar dtelecom_network.node[58].content_store 	decision_no[58] 	8692
scalar dtelecom_network.node[58].content_store 	decision_ratio[58] 	0.0024101916676231
scalar dtelecom_network.node[59].core_layer 	interests[59] 	14835
scalar dtelecom_network.node[59].core_layer 	data[59] 	9061
scalar dtelecom_network.node[59].content_store 	p_hit[59] 	0.38901247050893
scalar dtelecom_network.node[59].content_store 	hits[59] 	5771
scalar dtelecom_network.node[59].content_store 	misses[59] 	9064
scalar dtelecom_network.node[59].content_store 	decision_yes[59] 	11
scalar dtelecom_network.node[59].content_store 	decision_no[59] 	9050
scalar dtelecom_network.node[59].content_store 	decision_ratio[59] 	0.0012139940403929
scalar dtelecom_network.node[60].core_layer 	interests[60] 	13335
scalar dtelecom_network.node[60].core_layer 	repo_load[60] 	11251
scalar dtelecom_network.node[60].core_layer 	data[60] 	0
scalar dtelecom_network.node[60].content_store 	p_hit[60] 	0.15628046494188
scalar dtelecom_network.node[60].content_store 	hits[60] 	2084
scalar dtelecom_network.node[60].content_store 	misses[60] 	11251
scalar dtelecom_network.node[60].content_store 	decision_yes[60] 	53
scalar dtelecom_network.node[60].content_store 	decision_no[60] 	11198
scalar dtelecom_network.node[60].content_store 	decision_ratio[60] 	0.0047106923828993
scalar dtelecom_network.node[61].core_layer 	interests[61] 	0
scalar dtelecom_network.node[61].core_layer 	data[61] 	0
scalar dtelecom_network.node[61].content_store 	p_hit[61] 	-nan
scalar dtelecom_network.node[61].content_store 	hits[61] 	0
scalar dtelecom_network.node[61].content_store 	misses[61] 	0
scalar dtelecom_network.node[61].content_store 	decision_yes[61] 	0
scalar dtelecom_network.node[61].content_store 	decision_no[61] 	0
scalar dtelecom_network.node[61].content_store 	decision_ratio[61] 	0
scalar dtelecom_network.node[62].core_layer 	interests[62] 	12353
scalar dtelecom_network.node[62].core_layer 	data[62] 	8656
scalar dtelecom_network.node[62].content_store 	p_hit[62] 	0.29919857524488
scalar dtelecom_network.node[62].content_store 	hits[62] 	3696
scalar dtelecom_network.node[62].content_store 	misses[62] 	8657
scalar dtelecom_network.node[62].content_store 	decision_yes[62] 	14
scalar dtelecom_network.node[62].content_store 	decision_no[62] 	8642
scalar dtelecom_network.node[62].content_store 	decision_ratio[62] 	0.0016173752310536
scalar dtelecom_network.node[63].core_layer 	interests[63] 	0
scalar dtelecom_network.node[63].core_layer 	data[63] 	0
scalar dtelecom_network.node[63].content_store 	p_hit[63] 	-nan
scalar dtelecom_network.node[63].content_store 	hits[63] 	0
scalar dtelecom_network.node[63].content_store 	misses[63] 	0
scalar dtelecom_network.node[63].content_store 	decision_yes[63] 	0
scalar dtelecom_network.node[63].content_store 	decision_no[63] 	0
scalar dtelecom_network.node[63].content_store 	decision_ratio[63] 	0
scalar dtelecom_network.node[64].core_layer 	interests[64] 	13086
scalar dtelecom_network.node[64].core_layer 	repo_load[64] 	11040
scalar dtelecom_network.node[64].core_layer 	data[64] 	0
scalar dtelecom_network.node[64].content_store 	p_hit[64] 	0.15635029802843
scalar dtelecom_network.node[64].content_store 	hits[64] 	2046
scalar dtelecom_network.node[64].content_store 	misses[64] 	11040
scalar dtelecom_network.node[64].content_store 	decision_yes[64] 	54
scalar dtelecom_network.node[64].content_store 	decision_no[64] 	10986
scalar dtelecom_network.node[64].content_store 	decision_ratio[64] 	0.0048913043478261
scalar dtelecom_network.node[65].core_layer 	interests[65] 	232
scalar dtelecom_network.node[65].core_layer 	data[65] 	17
scalar dtelecom_network.node[65].content_store 	p_hit[65] 	0.92672413793103
scalar dtelecom_network.node[65].content_store 	hits[65] 	215
scalar dtelecom_network.node[65].content_store 	misses[65] 	17
scalar dtelecom_network.node[65].content_store 	decision_yes[65] 	1
scalar dtelecom_network.node[65].content_store 	decision_no[65] 	16
scalar dtelecom_network.node[65].content_store 	decision_ratio[65] 	0.058823529411765
scalar dtelecom_network.node[66].core_layer 	interests[66] 	12735
scalar dtelecom_network.node[66].core_layer 	data[66] 	8891
scalar dtelecom_network.node[66].content_store 	p_hit[66] 	0.30153121319199
scalar dtelecom_network.node[66].content_store 	hits[66] 	3840
scalar dtelecom_network.node[66].content_store 	misses[66] 	8895
scalar dtelecom_network.node[66].content_store 	decision_yes[66] 	9
scalar dtelecom_network.node[66].content_store 	decision_no[66] 	8882
scalar dtelecom_network.node[66].content_store 	decision_ratio[66] 	0.0010122595883478
scalar dtelecom_network.node[67].core_layer 	interests[67] 	12713
scalar dtelecom_network.node[67].core_layer 	data[67] 	8716
scalar dtelecom_network.node[67].content_store 	p_hit[67] 	0.31448123967592
scalar dtelecom_network.node[67].content_store 	hits[67] 	3998
scalar dtelecom_network.node[67].content_store 	misses[67] 	8715
scalar dtelecom_network.node[67].content_store 	decision_yes[67] 	13
scalar dtelecom_network.node[67].content_store 	decision_no[67] 	8703
scalar dtelecom_network.node[67].content_store 	decision_ratio[67] 	0.0014915098669114
scalar dtelecom_network.client[3] 	hdistance[3] 	1.3027348591258
scalar dtelecom_network.client[3] 	downloads[3] 	12103
scalar dtelecom_network.client[3] 	avg_time[3] 	0.01138449105
scalar dtelecom_network.client[4] 	hdistance[4] 	1.2980489829805
scalar dtelecom_network.client[4] 	downloads[4] 	12045
scalar dtelecom_network.client[4] 	avg_time[4] 	0.048617674489
scalar dtelecom_network.client[8] 	hdistance[8] 	1.7125464998309
scalar dtelecom_network.client[8] 	downloads[8] 	11828
scalar dtelecom_network.client[8] 	avg_time[8] 	0.016192221722
scalar dtelecom_network.client[9] 	hdistance[9] 	1.6798866855524
scalar dtelecom_network.client[9] 	downloads[9] 	12002
scalar dtelecom_network.client[9] 	avg_time[9] 	0.014909809247
scalar dtelecom_network.client[17] 	hdistance[17] 	1.6895076742431
scalar dtelecom_network.client[17] 	downloads[17] 	11923
scalar dtelecom_network.client[17] 	avg_time[17] 	0.014189734207
scalar dtelecom_network.client[22] 	hdistance[22] 	1.6977297848822
scalar dtelecom_network.client[22] 	downloads[22] 	11761
scalar dtelecom_network.client[22] 	avg_time[22] 	0.014867201448
scalar dtelecom_network.client[23] 	hdistance[23] 	1.5583585879269
scalar dtelecom_network.client[23] 	downloads[23] 	12209
scalar dtelecom_network.client[23] 	avg_time[23] 	0.013844735803
scalar dtelecom_network.client[28] 	hdistance[28] 	1.6800866883388
scalar dtelecom_network.client[28] 	downloads[28] 	11997
scalar dtelecom_network.client[28] 	avg_time[28] 	0.016223368925
scalar dtelecom_network.client[30] 	hdistance[30] 	1.7618968524209
scalar dtelecom_network.client[30] 	downloads[30] 	12041
scalar dtelecom_network.client[30] 	avg_time[30] 	0.01474726038
scalar dtelecom_network.client[31] 	hdistance[31] 	1.7485115303983
scalar dtelecom_network.client[31] 	downloads[31] 	11925
scalar dtelecom_network.client[31] 	avg_time[31] 	0.017435669085
scalar dtelecom_network.client[32] 	hdistance[32] 	1.7160253699789
scalar dtelecom_network.client[32] 	downloads[32] 	11825
scalar dtelecom_network.client[32] 	avg_time[32] 	0.014632136099
scalar dtelecom_network.client[33] 	hdistance[33] 	1.673909409995
scalar dtelecom_network.client[33] 	downloads[33] 	11966
scalar dtelecom_network.client[33] 	avg_time[33] 	0.014040718724
scalar dtelecom_network.client[36] 	hdistance[36] 	1.7323684430687
scalar dtelecom_network.client[36] 	downloads[36] 	11953
scalar dtelecom_network.client[36] 	avg_time[36] 	0.014944719108
scalar dtelecom_network.client[37] 	hdistance[37] 	1.7217087184612
scalar dtelecom_network.client[37] 	downloads[37] 	12009
scalar dtelecom_network.client[37] 	avg_time[37] 	0.015218828729
scalar dtelecom_network.client[40] 	hdistance[40] 	1.6470006591958
scalar dtelecom_network.client[40] 	downloads[40] 	12136
scalar dtelecom_network.client[40] 	avg_time[40] 	0.016150556461
scalar dtelecom_network.client[42] 	hdistance[42] 	1.7275893523509
scalar dtelecom_network.client[42] 	downloads[42] 	12059
scalar dtelecom_network.client[42] 	avg_time[42] 	0.016152838408
scalar dtelecom_network.client[45] 	hdistance[45] 	1.6193574623831
scalar dtelecom_network.client[45] 	downloads[45] 	12295
scalar dtelecom_network.client[45] 	avg_time[45] 	0.015939955942
scalar dtelecom_network.client[46] 	hdistance[46] 	1.7141914191419
scalar dtelecom_network.client[46] 	downloads[46] 	12120
scalar dtelecom_network.client[46] 	avg_time[46] 	0.016281012028
scalar dtelecom_network.client[48] 	hdistance[48] 	1.7025474525475
scalar dtelecom_network.client[48] 	downloads[48] 	12012
scalar dtelecom_network.client[48] 	avg_time[48] 	0.014705264365
scalar dtelecom_network.client[49] 	hdistance[49] 	1.7096963596712
scalar dtelecom_network.client[49] 	downloads[49] 	11922
scalar dtelecom_network.client[49] 	avg_time[49] 	0.014030135136
scalar dtelecom_network.client[50] 	hdistance[50] 	1.7756442227764
scalar dtelecom_network.client[50] 	downloads[50] 	12030
scalar dtelecom_network.client[50] 	avg_time[50] 	0.014448587909
scalar dtelecom_network.client[51] 	hdistance[51] 	1.6587614179167
scalar dtelecom_network.client[51] 	downloads[51] 	11933
scalar dtelecom_network.client[51] 	avg_time[51] 	0.014742544347
scalar dtelecom_network.client[53] 	hdistance[53] 	1.7111425952163
scalar dtelecom_network.client[53] 	downloads[53] 	11999
scalar dtelecom_network.client[53] 	avg_time[53] 	0.014574371806
scalar dtelecom_network.client[54] 	hdistance[54] 	1.6752675682403
scalar dtelecom_network.client[54] 	downloads[54] 	12053
scalar dtelecom_network.client[54] 	avg_time[54] 	0.015175049062
scalar dtelecom_network.client[55] 	hdistance[55] 	1.7514773473408
scalar dtelecom_network.client[55] 	downloads[55] 	12184
scalar dtelecom_network.client[55] 	avg_time[55] 	0.018426604101
scalar dtelecom_network.client[56] 	hdistance[56] 	1.6928131758443
scalar dtelecom_network.client[56] 	downloads[56] 	12022
scalar dtelecom_network.client[56] 	avg_time[56] 	0.014357294459
scalar dtelecom_network.client[57] 	hdistance[57] 	1.7660452070615
scalar dtelecom_network.client[57] 	downloads[57] 	12122
scalar dtelecom_network.client[57] 	avg_time[57] 	0.013759521194
scalar dtelecom_network.client[58] 	hdistance[58] 	1.6941186327078
scalar dtelecom_network.client[58] 	downloads[58] 	11936
scalar dtelecom_network.client[58] 	avg_time[58] 	0.01700689345
scalar dtelecom_network.client[59] 	hdistance[59] 	1.8490937423112
scalar dtelecom_network.client[59] 	downloads[59] 	12193
scalar dtelecom_network.client[59] 	avg_time[59] 	0.058190917612
scalar dtelecom_network.client[62] 	hdistance[62] 	2.1614398920924
scalar dtelecom_network.client[62] 	downloads[62] 	11862
scalar dtelecom_network.client[62] 	avg_time[62] 	0.059187997975
scalar dtelecom_network.client[66] 	hdistance[66] 	1.8854873407248
scalar dtelecom_network.client[66] 	downloads[66] 	12086
scalar dtelecom_network.client[66] 	avg_time[66] 	0.08661742306
scalar dtelecom_network.client[67] 	hdistance[67] 	1.8965172471255
scalar dtelecom_network.client[67] 	downloads[67] 	12002
scalar dtelecom_network.client[67] 	avg_time[67] 	0.071193164218
