version 2
run General-213-20160820-02:16:44-9589
attr a 0.9
attr cd fix0.01
attr configname General
attr cr lru
attr datetime 20160820-02:16:44
attr experiment General
attr fsize 1
attr inifile hw5115/scenario_A/SPR-FIX0.01.ini
attr iterationvars "$name=tree_4_3, $un=10, $rep=14, $cd=fix0.01, $cr=lru, $fsize=1, $a=0.9, $sl=spr, $ttl=1000, $variance=0.05"
attr iterationvars2 "$name=tree_4_3, $un=10, $rep=14, $cd=fix0.01, $cr=lru, $fsize=1, $a=0.9, $sl=spr, $ttl=1000, $variance=0.05, $repetition=0"
attr measurement "$name=tree_4_3, $un=10, $rep=14, $cd=fix0.01, $cr=lru, $fsize=1, $a=0.9, $sl=spr, $ttl=1000, $variance=0.05"
attr name tree_4_3
attr network networks.${name}_u${un}_r${rep}_network
attr processid 9589
attr rep 14
attr repetition 0
attr replication #0
attr resultdir results
attr runnumber 213
attr seedset 14
attr sl spr
attr ttl 1000
attr un 10
attr variance 0.05

scalar . 	a 	0.9
scalar . 	fsize 	1
scalar . 	rep 	14
scalar . 	ttl 	1000
scalar . 	un 	10
scalar . 	variance 	0.05
scalar tree_4_3_u10_r14_network.content_distribution 	repo-0 	0
scalar tree_4_3_u10_r14_network.content_distribution 	client-0 	13
scalar tree_4_3_u10_r14_network.content_distribution 	client-1 	14
scalar tree_4_3_u10_r14_network.content_distribution 	client-2 	15
scalar tree_4_3_u10_r14_network.content_distribution 	client-3 	16
scalar tree_4_3_u10_r14_network.content_distribution 	client-4 	17
scalar tree_4_3_u10_r14_network.content_distribution 	client-5 	18
scalar tree_4_3_u10_r14_network.content_distribution 	client-6 	19
scalar tree_4_3_u10_r14_network.content_distribution 	client-7 	20
scalar tree_4_3_u10_r14_network.content_distribution 	client-8 	21
scalar tree_4_3_u10_r14_network.content_distribution 	client-9 	22
scalar tree_4_3_u10_r14_network.content_distribution 	client-10 	23
scalar tree_4_3_u10_r14_network.content_distribution 	client-11 	24
scalar tree_4_3_u10_r14_network.content_distribution 	client-12 	25
scalar tree_4_3_u10_r14_network.content_distribution 	client-13 	26
scalar tree_4_3_u10_r14_network.content_distribution 	client-14 	27
scalar tree_4_3_u10_r14_network.content_distribution 	client-15 	28
scalar tree_4_3_u10_r14_network.content_distribution 	client-16 	29
scalar tree_4_3_u10_r14_network.content_distribution 	client-17 	30
scalar tree_4_3_u10_r14_network.content_distribution 	client-18 	31
scalar tree_4_3_u10_r14_network.content_distribution 	client-19 	32
scalar tree_4_3_u10_r14_network.content_distribution 	client-20 	33
scalar tree_4_3_u10_r14_network.content_distribution 	client-21 	34
scalar tree_4_3_u10_r14_network.content_distribution 	client-22 	35
scalar tree_4_3_u10_r14_network.content_distribution 	client-23 	36
scalar tree_4_3_u10_r14_network.content_distribution 	client-24 	37
scalar tree_4_3_u10_r14_network.content_distribution 	client-25 	38
scalar tree_4_3_u10_r14_network.content_distribution 	client-26 	39
scalar tree_4_3_u10_r14_network.content_distribution 	repo-0_card 	100000
scalar tree_4_3_u10_r14_network.content_distribution 	repo-0_price 	0
scalar tree_4_3_u10_r14_network.statistics 	stabilization_time 	3086.8
scalar tree_4_3_u10_r14_network.statistics 	p_hit 	0.18204392336198
scalar tree_4_3_u10_r14_network.statistics 	interests 	25620.575
scalar tree_4_3_u10_r14_network.statistics 	data 	17511.325
scalar tree_4_3_u10_r14_network.statistics 	hdistance 	2.8388029146857
scalar tree_4_3_u10_r14_network.statistics 	avg_time 	0.004319065329
scalar tree_4_3_u10_r14_network.statistics 	downloads 	324363
scalar tree_4_3_u10_r14_network.statistics 	total_cost 	0
scalar tree_4_3_u10_r14_network.statistics 	total_replicas 	100000
scalar tree_4_3_u10_r14_network.statistics 	inner_hit 	0.32085348822153
scalar tree_4_3_u10_r14_network.node[0].core_layer 	interests[0] 	225231
scalar tree_4_3_u10_r14_network.node[0].core_layer 	repo_load[0] 	220290
scalar tree_4_3_u10_r14_network.node[0].core_layer 	data[0] 	0
scalar tree_4_3_u10_r14_network.node[0].core_layer 	repo_int[0] 	220290
scalar tree_4_3_u10_r14_network.node[0].content_store 	p_hit[0] 	0.021937477523076
scalar tree_4_3_u10_r14_network.node[0].content_store 	hits[0] 	4941
scalar tree_4_3_u10_r14_network.node[0].content_store 	misses[0] 	220290
scalar tree_4_3_u10_r14_network.node[0].content_store 	decision_yes[0] 	2245
scalar tree_4_3_u10_r14_network.node[0].content_store 	decision_no[0] 	218045
scalar tree_4_3_u10_r14_network.node[0].content_store 	decision_ratio[0] 	0.010191111716374
scalar tree_4_3_u10_r14_network.node[1].core_layer 	interests[1] 	163084
scalar tree_4_3_u10_r14_network.node[1].core_layer 	data[1] 	158793
scalar tree_4_3_u10_r14_network.node[1].content_store 	p_hit[1] 	0.02626253955017
scalar tree_4_3_u10_r14_network.node[1].content_store 	hits[1] 	4283
scalar tree_4_3_u10_r14_network.node[1].content_store 	misses[1] 	158801
scalar tree_4_3_u10_r14_network.node[1].content_store 	decision_yes[1] 	1540
scalar tree_4_3_u10_r14_network.node[1].content_store 	decision_no[1] 	157253
scalar tree_4_3_u10_r14_network.node[1].content_store 	decision_ratio[1] 	0.0096981604982587
scalar tree_4_3_u10_r14_network.node[2].core_layer 	interests[2] 	59973
scalar tree_4_3_u10_r14_network.node[2].core_layer 	data[2] 	58210
scalar tree_4_3_u10_r14_network.node[2].content_store 	p_hit[2] 	0.029396561786137
scalar tree_4_3_u10_r14_network.node[2].content_store 	hits[2] 	1763
scalar tree_4_3_u10_r14_network.node[2].content_store 	misses[2] 	58210
scalar tree_4_3_u10_r14_network.node[2].content_store 	decision_yes[2] 	533
scalar tree_4_3_u10_r14_network.node[2].content_store 	decision_no[2] 	57677
scalar tree_4_3_u10_r14_network.node[2].content_store 	decision_ratio[2] 	0.0091565023191891
scalar tree_4_3_u10_r14_network.node[3].core_layer 	interests[3] 	8555
scalar tree_4_3_u10_r14_network.node[3].core_layer 	data[3] 	8228
scalar tree_4_3_u10_r14_network.node[3].content_store 	p_hit[3] 	0.038223261250731
scalar tree_4_3_u10_r14_network.node[3].content_store 	hits[3] 	327
scalar tree_4_3_u10_r14_network.node[3].content_store 	misses[3] 	8228
scalar tree_4_3_u10_r14_network.node[3].content_store 	decision_yes[3] 	99
scalar tree_4_3_u10_r14_network.node[3].content_store 	decision_no[3] 	8129
scalar tree_4_3_u10_r14_network.node[3].content_store 	decision_ratio[3] 	0.012032085561497
scalar tree_4_3_u10_r14_network.node[4].core_layer 	interests[4] 	44864
scalar tree_4_3_u10_r14_network.node[4].core_layer 	data[4] 	42750
scalar tree_4_3_u10_r14_network.node[4].content_store 	p_hit[4] 	0.047075606276748
scalar tree_4_3_u10_r14_network.node[4].content_store 	hits[4] 	2112
scalar tree_4_3_u10_r14_network.node[4].content_store 	misses[4] 	42752
scalar tree_4_3_u10_r14_network.node[4].content_store 	decision_yes[4] 	460
scalar tree_4_3_u10_r14_network.node[4].content_store 	decision_no[4] 	42290
scalar tree_4_3_u10_r14_network.node[4].content_store 	decision_ratio[4] 	0.010760233918129
scalar tree_4_3_u10_r14_network.node[5].core_layer 	interests[5] 	27276
scalar tree_4_3_u10_r14_network.node[5].core_layer 	data[5] 	25804
scalar tree_4_3_u10_r14_network.node[5].content_store 	p_hit[5] 	0.053966857310456
scalar tree_4_3_u10_r14_network.node[5].content_store 	hits[5] 	1472
scalar tree_4_3_u10_r14_network.node[5].content_store 	misses[5] 	25804
scalar tree_4_3_u10_r14_network.node[5].content_store 	decision_yes[5] 	261
scalar tree_4_3_u10_r14_network.node[5].content_store 	decision_no[5] 	25543
scalar tree_4_3_u10_r14_network.node[5].content_store 	decision_ratio[5] 	0.010114710897535
scalar tree_4_3_u10_r14_network.node[6].core_layer 	interests[6] 	8987
scalar tree_4_3_u10_r14_network.node[6].core_layer 	data[6] 	8541
scalar tree_4_3_u10_r14_network.node[6].content_store 	p_hit[6] 	0.049627239345722
scalar tree_4_3_u10_r14_network.node[6].content_store 	hits[6] 	446
scalar tree_4_3_u10_r14_network.node[6].content_store 	misses[6] 	8541
scalar tree_4_3_u10_r14_network.node[6].content_store 	decision_yes[6] 	72
scalar tree_4_3_u10_r14_network.node[6].content_store 	decision_no[6] 	8469
scalar tree_4_3_u10_r14_network.node[6].content_store 	decision_ratio[6] 	0.0084299262381454
scalar tree_4_3_u10_r14_network.node[7].core_layer 	interests[7] 	45342
scalar tree_4_3_u10_r14_network.node[7].core_layer 	data[7] 	42991
scalar tree_4_3_u10_r14_network.node[7].content_store 	p_hit[7] 	0.051828326937497
scalar tree_4_3_u10_r14_network.node[7].content_store 	hits[7] 	2350
scalar tree_4_3_u10_r14_network.node[7].content_store 	misses[7] 	42992
scalar tree_4_3_u10_r14_network.node[7].content_store 	decision_yes[7] 	446
scalar tree_4_3_u10_r14_network.node[7].content_store 	decision_no[7] 	42545
scalar tree_4_3_u10_r14_network.node[7].content_store 	decision_ratio[7] 	0.010374264380917
scalar tree_4_3_u10_r14_network.node[8].core_layer 	interests[8] 	26748
scalar tree_4_3_u10_r14_network.node[8].core_layer 	data[8] 	25470
scalar tree_4_3_u10_r14_network.node[8].content_store 	p_hit[8] 	0.047779273216689
scalar tree_4_3_u10_r14_network.node[8].content_store 	hits[8] 	1278
scalar tree_4_3_u10_r14_network.node[8].content_store 	misses[8] 	25470
scalar tree_4_3_u10_r14_network.node[8].content_store 	decision_yes[8] 	231
scalar tree_4_3_u10_r14_network.node[8].content_store 	decision_no[8] 	25239
scalar tree_4_3_u10_r14_network.node[8].content_store 	decision_ratio[8] 	0.0090694935217903
scalar tree_4_3_u10_r14_network.node[9].core_layer 	interests[9] 	9145
scalar tree_4_3_u10_r14_network.node[9].core_layer 	data[9] 	8716
scalar tree_4_3_u10_r14_network.node[9].content_store 	p_hit[9] 	0.046910880262438
scalar tree_4_3_u10_r14_network.node[9].content_store 	hits[9] 	429
scalar tree_4_3_u10_r14_network.node[9].content_store 	misses[9] 	8716
scalar tree_4_3_u10_r14_network.node[9].content_store 	decision_yes[9] 	80
scalar tree_4_3_u10_r14_network.node[9].content_store 	decision_no[9] 	8636
scalar tree_4_3_u10_r14_network.node[9].content_store 	decision_ratio[9] 	0.0091785222579165
scalar tree_4_3_u10_r14_network.node[10].core_layer 	interests[10] 	45165
scalar tree_4_3_u10_r14_network.node[10].core_layer 	data[10] 	42997
scalar tree_4_3_u10_r14_network.node[10].content_store 	p_hit[10] 	0.047913207129414
scalar tree_4_3_u10_r14_network.node[10].content_store 	hits[10] 	2164
scalar tree_4_3_u10_r14_network.node[10].content_store 	misses[10] 	43001
scalar tree_4_3_u10_r14_network.node[10].content_store 	decision_yes[10] 	428
scalar tree_4_3_u10_r14_network.node[10].content_store 	decision_no[10] 	42569
scalar tree_4_3_u10_r14_network.node[10].content_store 	decision_ratio[10] 	0.0099541828499663
scalar tree_4_3_u10_r14_network.node[11].core_layer 	interests[11] 	27055
scalar tree_4_3_u10_r14_network.node[11].core_layer 	data[11] 	25787
scalar tree_4_3_u10_r14_network.node[11].content_store 	p_hit[11] 	0.046719645167252
scalar tree_4_3_u10_r14_network.node[11].content_store 	hits[11] 	1264
scalar tree_4_3_u10_r14_network.node[11].content_store 	misses[11] 	25791
scalar tree_4_3_u10_r14_network.node[11].content_store 	decision_yes[11] 	271
scalar tree_4_3_u10_r14_network.node[11].content_store 	decision_no[11] 	25516
scalar tree_4_3_u10_r14_network.node[11].content_store 	decision_ratio[11] 	0.010509171287858
scalar tree_4_3_u10_r14_network.node[12].core_layer 	interests[12] 	9029
scalar tree_4_3_u10_r14_network.node[12].core_layer 	data[12] 	8555
scalar tree_4_3_u10_r14_network.node[12].content_store 	p_hit[12] 	0.052497508029682
scalar tree_4_3_u10_r14_network.node[12].content_store 	hits[12] 	474
scalar tree_4_3_u10_r14_network.node[12].content_store 	misses[12] 	8555
scalar tree_4_3_u10_r14_network.node[12].content_store 	decision_yes[12] 	67
scalar tree_4_3_u10_r14_network.node[12].content_store 	decision_no[12] 	8488
scalar tree_4_3_u10_r14_network.node[12].content_store 	decision_ratio[12] 	0.0078316773816482
scalar tree_4_3_u10_r14_network.node[13].core_layer 	interests[13] 	11859
scalar tree_4_3_u10_r14_network.node[13].core_layer 	data[13] 	8932
scalar tree_4_3_u10_r14_network.node[13].content_store 	p_hit[13] 	0.24681676363943
scalar tree_4_3_u10_r14_network.node[13].content_store 	hits[13] 	2927
scalar tree_4_3_u10_r14_network.node[13].content_store 	misses[13] 	8932
scalar tree_4_3_u10_r14_network.node[13].content_store 	decision_yes[13] 	82
scalar tree_4_3_u10_r14_network.node[13].content_store 	decision_no[13] 	8850
scalar tree_4_3_u10_r14_network.node[13].content_store 	decision_ratio[13] 	0.0091804746977161
scalar tree_4_3_u10_r14_network.node[14].core_layer 	interests[14] 	11939
scalar tree_4_3_u10_r14_network.node[14].core_layer 	data[14] 	8888
scalar tree_4_3_u10_r14_network.node[14].content_store 	p_hit[14] 	0.2555490409582
scalar tree_4_3_u10_r14_network.node[14].content_store 	hits[14] 	3051
scalar tree_4_3_u10_r14_network.node[14].content_store 	misses[14] 	8888
scalar tree_4_3_u10_r14_network.node[14].content_store 	decision_yes[14] 	93
scalar tree_4_3_u10_r14_network.node[14].content_store 	decision_no[14] 	8795
scalar tree_4_3_u10_r14_network.node[14].content_store 	decision_ratio[14] 	0.010463546354635
scalar tree_4_3_u10_r14_network.node[15].core_layer 	interests[15] 	12056
scalar tree_4_3_u10_r14_network.node[15].core_layer 	data[15] 	8914
scalar tree_4_3_u10_r14_network.node[15].content_store 	p_hit[15] 	0.26061712010617
scalar tree_4_3_u10_r14_network.node[15].content_store 	hits[15] 	3142
scalar tree_4_3_u10_r14_network.node[15].content_store 	misses[15] 	8914
scalar tree_4_3_u10_r14_network.node[15].content_store 	decision_yes[15] 	81
scalar tree_4_3_u10_r14_network.node[15].content_store 	decision_no[15] 	8833
scalar tree_4_3_u10_r14_network.node[15].content_store 	decision_ratio[15] 	0.0090868297060803
scalar tree_4_3_u10_r14_network.node[16].core_layer 	interests[16] 	11996
scalar tree_4_3_u10_r14_network.node[16].core_layer 	data[16] 	9048
scalar tree_4_3_u10_r14_network.node[16].content_store 	p_hit[16] 	0.24574858286095
scalar tree_4_3_u10_r14_network.node[16].content_store 	hits[16] 	2948
scalar tree_4_3_u10_r14_network.node[16].content_store 	misses[16] 	9048
scalar tree_4_3_u10_r14_network.node[16].content_store 	decision_yes[16] 	86
scalar tree_4_3_u10_r14_network.node[16].content_store 	decision_no[16] 	8962
scalar tree_4_3_u10_r14_network.node[16].content_store 	decision_ratio[16] 	0.0095048629531388
scalar tree_4_3_u10_r14_network.node[17].core_layer 	interests[17] 	12091
scalar tree_4_3_u10_r14_network.node[17].core_layer 	data[17] 	9124
scalar tree_4_3_u10_r14_network.node[17].content_store 	p_hit[17] 	0.24538913241254
scalar tree_4_3_u10_r14_network.node[17].content_store 	hits[17] 	2967
scalar tree_4_3_u10_r14_network.node[17].content_store 	misses[17] 	9124
scalar tree_4_3_u10_r14_network.node[17].content_store 	decision_yes[17] 	83
scalar tree_4_3_u10_r14_network.node[17].content_store 	decision_no[17] 	9041
scalar tree_4_3_u10_r14_network.node[17].content_store 	decision_ratio[17] 	0.0090968873301184
scalar tree_4_3_u10_r14_network.node[18].core_layer 	interests[18] 	12032
scalar tree_4_3_u10_r14_network.node[18].core_layer 	data[18] 	9048
scalar tree_4_3_u10_r14_network.node[18].content_store 	p_hit[18] 	0.24800531914894
scalar tree_4_3_u10_r14_network.node[18].content_store 	hits[18] 	2984
scalar tree_4_3_u10_r14_network.node[18].content_store 	misses[18] 	9048
scalar tree_4_3_u10_r14_network.node[18].content_store 	decision_yes[18] 	96
scalar tree_4_3_u10_r14_network.node[18].content_store 	decision_no[18] 	8952
scalar tree_4_3_u10_r14_network.node[18].content_store 	decision_ratio[18] 	0.010610079575597
scalar tree_4_3_u10_r14_network.node[19].core_layer 	interests[19] 	11908
scalar tree_4_3_u10_r14_network.node[19].core_layer 	data[19] 	9082
scalar tree_4_3_u10_r14_network.node[19].content_store 	p_hit[19] 	0.23731944910984
scalar tree_4_3_u10_r14_network.node[19].content_store 	hits[19] 	2826
scalar tree_4_3_u10_r14_network.node[19].content_store 	misses[19] 	9082
scalar tree_4_3_u10_r14_network.node[19].content_store 	decision_yes[19] 	81
scalar tree_4_3_u10_r14_network.node[19].content_store 	decision_no[19] 	9001
scalar tree_4_3_u10_r14_network.node[19].content_store 	decision_ratio[19] 	0.0089187403655582
scalar tree_4_3_u10_r14_network.node[20].core_layer 	interests[20] 	12010
scalar tree_4_3_u10_r14_network.node[20].core_layer 	data[20] 	9104
scalar tree_4_3_u10_r14_network.node[20].content_store 	p_hit[20] 	0.24196502914238
scalar tree_4_3_u10_r14_network.node[20].content_store 	hits[20] 	2906
scalar tree_4_3_u10_r14_network.node[20].content_store 	misses[20] 	9104
scalar tree_4_3_u10_r14_network.node[20].content_store 	decision_yes[20] 	94
scalar tree_4_3_u10_r14_network.node[20].content_store 	decision_no[20] 	9010
scalar tree_4_3_u10_r14_network.node[20].content_store 	decision_ratio[20] 	0.010325131810193
scalar tree_4_3_u10_r14_network.node[21].core_layer 	interests[21] 	12125
scalar tree_4_3_u10_r14_network.node[21].core_layer 	data[21] 	8987
scalar tree_4_3_u10_r14_network.node[21].content_store 	p_hit[21] 	0.25863917525773
scalar tree_4_3_u10_r14_network.node[21].content_store 	hits[21] 	3136
scalar tree_4_3_u10_r14_network.node[21].content_store 	misses[21] 	8989
scalar tree_4_3_u10_r14_network.node[21].content_store 	decision_yes[21] 	94
scalar tree_4_3_u10_r14_network.node[21].content_store 	decision_no[21] 	8893
scalar tree_4_3_u10_r14_network.node[21].content_store 	decision_ratio[21] 	0.010459552687215
scalar tree_4_3_u10_r14_network.node[22].core_layer 	interests[22] 	12078
scalar tree_4_3_u10_r14_network.node[22].core_layer 	data[22] 	9039
scalar tree_4_3_u10_r14_network.node[22].content_store 	p_hit[22] 	0.2515317105481
scalar tree_4_3_u10_r14_network.node[22].content_store 	hits[22] 	3038
scalar tree_4_3_u10_r14_network.node[22].content_store 	misses[22] 	9040
scalar tree_4_3_u10_r14_network.node[22].content_store 	decision_yes[22] 	85
scalar tree_4_3_u10_r14_network.node[22].content_store 	decision_no[22] 	8954
scalar tree_4_3_u10_r14_network.node[22].content_store 	decision_ratio[22] 	0.0094036950990154
scalar tree_4_3_u10_r14_network.node[23].core_layer 	interests[23] 	11938
scalar tree_4_3_u10_r14_network.node[23].core_layer 	data[23] 	8882
scalar tree_4_3_u10_r14_network.node[23].content_store 	p_hit[23] 	0.25607304406098
scalar tree_4_3_u10_r14_network.node[23].content_store 	hits[23] 	3057
scalar tree_4_3_u10_r14_network.node[23].content_store 	misses[23] 	8881
scalar tree_4_3_u10_r14_network.node[23].content_store 	decision_yes[23] 	81
scalar tree_4_3_u10_r14_network.node[23].content_store 	decision_no[23] 	8801
scalar tree_4_3_u10_r14_network.node[23].content_store 	decision_ratio[23] 	0.0091195676649403
scalar tree_4_3_u10_r14_network.node[24].core_layer 	interests[24] 	12029
scalar tree_4_3_u10_r14_network.node[24].core_layer 	data[24] 	9046
scalar tree_4_3_u10_r14_network.node[24].content_store 	p_hit[24] 	0.24798403857345
scalar tree_4_3_u10_r14_network.node[24].content_store 	hits[24] 	2983
scalar tree_4_3_u10_r14_network.node[24].content_store 	misses[24] 	9046
scalar tree_4_3_u10_r14_network.node[24].content_store 	decision_yes[24] 	100
scalar tree_4_3_u10_r14_network.node[24].content_store 	decision_no[24] 	8946
scalar tree_4_3_u10_r14_network.node[24].content_store 	decision_ratio[24] 	0.011054609772275
scalar tree_4_3_u10_r14_network.node[25].core_layer 	interests[25] 	12153
scalar tree_4_3_u10_r14_network.node[25].core_layer 	data[25] 	9236
scalar tree_4_3_u10_r14_network.node[25].content_store 	p_hit[25] 	0.23985847115938
scalar tree_4_3_u10_r14_network.node[25].content_store 	hits[25] 	2915
scalar tree_4_3_u10_r14_network.node[25].content_store 	misses[25] 	9238
scalar tree_4_3_u10_r14_network.node[25].content_store 	decision_yes[25] 	87
scalar tree_4_3_u10_r14_network.node[25].content_store 	decision_no[25] 	9149
scalar tree_4_3_u10_r14_network.node[25].content_store 	decision_ratio[25] 	0.0094196621914249
scalar tree_4_3_u10_r14_network.node[26].core_layer 	interests[26] 	12040
scalar tree_4_3_u10_r14_network.node[26].core_layer 	data[26] 	8932
scalar tree_4_3_u10_r14_network.node[26].content_store 	p_hit[26] 	0.25813953488372
scalar tree_4_3_u10_r14_network.node[26].content_store 	hits[26] 	3108
scalar tree_4_3_u10_r14_network.node[26].content_store 	misses[26] 	8932
scalar tree_4_3_u10_r14_network.node[26].content_store 	decision_yes[26] 	91
scalar tree_4_3_u10_r14_network.node[26].content_store 	decision_no[26] 	8841
scalar tree_4_3_u10_r14_network.node[26].content_store 	decision_ratio[26] 	0.010188087774295
scalar tree_4_3_u10_r14_network.node[27].core_layer 	interests[27] 	11859
scalar tree_4_3_u10_r14_network.node[27].core_layer 	data[27] 	8911
scalar tree_4_3_u10_r14_network.node[27].content_store 	p_hit[27] 	0.24858757062147
scalar tree_4_3_u10_r14_network.node[27].content_store 	hits[27] 	2948
scalar tree_4_3_u10_r14_network.node[27].content_store 	misses[27] 	8911
scalar tree_4_3_u10_r14_network.node[27].content_store 	decision_yes[27] 	90
scalar tree_4_3_u10_r14_network.node[27].content_store 	decision_no[27] 	8821
scalar tree_4_3_u10_r14_network.node[27].content_store 	decision_ratio[27] 	0.010099876557064
scalar tree_4_3_u10_r14_network.node[28].core_layer 	interests[28] 	12032
scalar tree_4_3_u10_r14_network.node[28].core_layer 	data[28] 	9139
scalar tree_4_3_u10_r14_network.node[28].content_store 	p_hit[28] 	0.24044215425532
scalar tree_4_3_u10_r14_network.node[28].content_store 	hits[28] 	2893
scalar tree_4_3_u10_r14_network.node[28].content_store 	misses[28] 	9139
scalar tree_4_3_u10_r14_network.node[28].content_store 	decision_yes[28] 	97
scalar tree_4_3_u10_r14_network.node[28].content_store 	decision_no[28] 	9042
scalar tree_4_3_u10_r14_network.node[28].content_store 	decision_ratio[28] 	0.010613852719116
scalar tree_4_3_u10_r14_network.node[29].core_layer 	interests[29] 	11924
scalar tree_4_3_u10_r14_network.node[29].core_layer 	data[29] 	8905
scalar tree_4_3_u10_r14_network.node[29].content_store 	p_hit[29] 	0.25318685005032
scalar tree_4_3_u10_r14_network.node[29].content_store 	hits[29] 	3019
scalar tree_4_3_u10_r14_network.node[29].content_store 	misses[29] 	8905
scalar tree_4_3_u10_r14_network.node[29].content_store 	decision_yes[29] 	88
scalar tree_4_3_u10_r14_network.node[29].content_store 	decision_no[29] 	8817
scalar tree_4_3_u10_r14_network.node[29].content_store 	decision_ratio[29] 	0.0098820887142055
scalar tree_4_3_u10_r14_network.node[30].core_layer 	interests[30] 	12087
scalar tree_4_3_u10_r14_network.node[30].core_layer 	data[30] 	9145
scalar tree_4_3_u10_r14_network.node[30].content_store 	p_hit[30] 	0.24340200215107
scalar tree_4_3_u10_r14_network.node[30].content_store 	hits[30] 	2942
scalar tree_4_3_u10_r14_network.node[30].content_store 	misses[30] 	9145
scalar tree_4_3_u10_r14_network.node[30].content_store 	decision_yes[30] 	75
scalar tree_4_3_u10_r14_network.node[30].content_store 	decision_no[30] 	9070
scalar tree_4_3_u10_r14_network.node[30].content_store 	decision_ratio[30] 	0.0082012028430837
scalar tree_4_3_u10_r14_network.node[31].core_layer 	interests[31] 	11972
scalar tree_4_3_u10_r14_network.node[31].core_layer 	data[31] 	9018
scalar tree_4_3_u10_r14_network.node[31].content_store 	p_hit[31] 	0.2466588706983
scalar tree_4_3_u10_r14_network.node[31].content_store 	hits[31] 	2953
scalar tree_4_3_u10_r14_network.node[31].content_store 	misses[31] 	9019
scalar tree_4_3_u10_r14_network.node[31].content_store 	decision_yes[31] 	102
scalar tree_4_3_u10_r14_network.node[31].content_store 	decision_no[31] 	8916
scalar tree_4_3_u10_r14_network.node[31].content_store 	decision_ratio[31] 	0.011310711909514
scalar tree_4_3_u10_r14_network.node[32].core_layer 	interests[32] 	11998
scalar tree_4_3_u10_r14_network.node[32].core_layer 	data[32] 	8951
scalar tree_4_3_u10_r14_network.node[32].content_store 	p_hit[32] 	0.25395899316553
scalar tree_4_3_u10_r14_network.node[32].content_store 	hits[32] 	3047
scalar tree_4_3_u10_r14_network.node[32].content_store 	misses[32] 	8951
scalar tree_4_3_u10_r14_network.node[32].content_store 	decision_yes[32] 	91
scalar tree_4_3_u10_r14_network.node[32].content_store 	decision_no[32] 	8860
scalar tree_4_3_u10_r14_network.node[32].content_store 	decision_ratio[32] 	0.010166461847838
scalar tree_4_3_u10_r14_network.node[33].core_layer 	interests[33] 	12059
scalar tree_4_3_u10_r14_network.node[33].core_layer 	data[33] 	9116
scalar tree_4_3_u10_r14_network.node[33].content_store 	p_hit[33] 	0.2440500870719
scalar tree_4_3_u10_r14_network.node[33].content_store 	hits[33] 	2943
scalar tree_4_3_u10_r14_network.node[33].content_store 	misses[33] 	9116
scalar tree_4_3_u10_r14_network.node[33].content_store 	decision_yes[33] 	77
scalar tree_4_3_u10_r14_network.node[33].content_store 	decision_no[33] 	9039
scalar tree_4_3_u10_r14_network.node[33].content_store 	decision_ratio[33] 	0.008446687143484
scalar tree_4_3_u10_r14_network.node[34].core_layer 	interests[34] 	12007
scalar tree_4_3_u10_r14_network.node[34].core_layer 	data[34] 	8973
scalar tree_4_3_u10_r14_network.node[34].content_store 	p_hit[34] 	0.25268593320563
scalar tree_4_3_u10_r14_network.node[34].content_store 	hits[34] 	3034
scalar tree_4_3_u10_r14_network.node[34].content_store 	misses[34] 	8973
scalar tree_4_3_u10_r14_network.node[34].content_store 	decision_yes[34] 	106
scalar tree_4_3_u10_r14_network.node[34].content_store 	decision_no[34] 	8867
scalar tree_4_3_u10_r14_network.node[34].content_store 	decision_ratio[34] 	0.011813217430068
scalar tree_4_3_u10_r14_network.node[35].core_layer 	interests[35] 	12004
scalar tree_4_3_u10_r14_network.node[35].core_layer 	data[35] 	9008
scalar tree_4_3_u10_r14_network.node[35].content_store 	p_hit[35] 	0.24958347217594
scalar tree_4_3_u10_r14_network.node[35].content_store 	hits[35] 	2996
scalar tree_4_3_u10_r14_network.node[35].content_store 	misses[35] 	9008
scalar tree_4_3_u10_r14_network.node[35].content_store 	decision_yes[35] 	84
scalar tree_4_3_u10_r14_network.node[35].content_store 	decision_no[35] 	8924
scalar tree_4_3_u10_r14_network.node[35].content_store 	decision_ratio[35] 	0.0093250444049734
scalar tree_4_3_u10_r14_network.node[36].core_layer 	interests[36] 	12106
scalar tree_4_3_u10_r14_network.node[36].core_layer 	data[36] 	9034
scalar tree_4_3_u10_r14_network.node[36].content_store 	p_hit[36] 	0.25375846687593
scalar tree_4_3_u10_r14_network.node[36].content_store 	hits[36] 	3072
scalar tree_4_3_u10_r14_network.node[36].content_store 	misses[36] 	9034
scalar tree_4_3_u10_r14_network.node[36].content_store 	decision_yes[36] 	81
scalar tree_4_3_u10_r14_network.node[36].content_store 	decision_no[36] 	8953
scalar tree_4_3_u10_r14_network.node[36].content_store 	decision_ratio[36] 	0.0089661279610361
scalar tree_4_3_u10_r14_network.node[37].core_layer 	interests[37] 	12014
scalar tree_4_3_u10_r14_network.node[37].core_layer 	data[37] 	9107
scalar tree_4_3_u10_r14_network.node[37].content_store 	p_hit[37] 	0.24196770434493
scalar tree_4_3_u10_r14_network.node[37].content_store 	hits[37] 	2907
scalar tree_4_3_u10_r14_network.node[37].content_store 	misses[37] 	9107
scalar tree_4_3_u10_r14_network.node[37].content_store 	decision_yes[37] 	99
scalar tree_4_3_u10_r14_network.node[37].content_store 	decision_no[37] 	9008
scalar tree_4_3_u10_r14_network.node[37].content_store 	decision_ratio[37] 	0.010870758757
scalar tree_4_3_u10_r14_network.node[38].core_layer 	interests[38] 	11967
scalar tree_4_3_u10_r14_network.node[38].core_layer 	data[38] 	9013
scalar tree_4_3_u10_r14_network.node[38].content_store 	p_hit[38] 	0.24684549176903
scalar tree_4_3_u10_r14_network.node[38].content_store 	hits[38] 	2954
scalar tree_4_3_u10_r14_network.node[38].content_store 	misses[38] 	9013
scalar tree_4_3_u10_r14_network.node[38].content_store 	decision_yes[38] 	90
scalar tree_4_3_u10_r14_network.node[38].content_store 	decision_no[38] 	8923
scalar tree_4_3_u10_r14_network.node[38].content_store 	decision_ratio[38] 	0.0099855763896594
scalar tree_4_3_u10_r14_network.node[39].core_layer 	interests[39] 	12086
scalar tree_4_3_u10_r14_network.node[39].core_layer 	data[39] 	9029
scalar tree_4_3_u10_r14_network.node[39].content_store 	p_hit[39] 	0.25285454244581
scalar tree_4_3_u10_r14_network.node[39].content_store 	hits[39] 	3056
scalar tree_4_3_u10_r14_network.node[39].content_store 	misses[39] 	9030
scalar tree_4_3_u10_r14_network.node[39].content_store 	decision_yes[39] 	87
scalar tree_4_3_u10_r14_network.node[39].content_store 	decision_no[39] 	8942
scalar tree_4_3_u10_r14_network.node[39].content_store 	decision_ratio[39] 	0.00963561856241
scalar tree_4_3_u10_r14_network.client[13] 	hdistance[13] 	2.8560586896029
scalar tree_4_3_u10_r14_network.client[13] 	downloads[13] 	11859
scalar tree_4_3_u10_r14_network.client[13] 	avg_time[13] 	0.004342240177
scalar tree_4_3_u10_r14_network.client[14] 	hdistance[14] 	2.8338219281347
scalar tree_4_3_u10_r14_network.client[14] 	downloads[14] 	11939
scalar tree_4_3_u10_r14_network.client[14] 	avg_time[14] 	0.00430705788
scalar tree_4_3_u10_r14_network.client[15] 	hdistance[15] 	2.797694094227
scalar tree_4_3_u10_r14_network.client[15] 	downloads[15] 	12056
scalar tree_4_3_u10_r14_network.client[15] 	avg_time[15] 	0.00425410399
scalar tree_4_3_u10_r14_network.client[16] 	hdistance[16] 	2.8438646215405
scalar tree_4_3_u10_r14_network.client[16] 	downloads[16] 	11996
scalar tree_4_3_u10_r14_network.client[16] 	avg_time[16] 	0.004328939969
scalar tree_4_3_u10_r14_network.client[17] 	hdistance[17] 	2.8290463981474
scalar tree_4_3_u10_r14_network.client[17] 	downloads[17] 	12091
scalar tree_4_3_u10_r14_network.client[17] 	avg_time[17] 	0.004307376476
scalar tree_4_3_u10_r14_network.client[18] 	hdistance[18] 	2.8241356382979
scalar tree_4_3_u10_r14_network.client[18] 	downloads[18] 	12032
scalar tree_4_3_u10_r14_network.client[18] 	avg_time[18] 	0.004298367993
scalar tree_4_3_u10_r14_network.client[19] 	hdistance[19] 	2.8929291232785
scalar tree_4_3_u10_r14_network.client[19] 	downloads[19] 	11908
scalar tree_4_3_u10_r14_network.client[19] 	avg_time[19] 	0.004399628008
scalar tree_4_3_u10_r14_network.client[20] 	hdistance[20] 	2.8808492922565
scalar tree_4_3_u10_r14_network.client[20] 	downloads[20] 	12010
scalar tree_4_3_u10_r14_network.client[20] 	avg_time[20] 	0.004381345869
scalar tree_4_3_u10_r14_network.client[21] 	hdistance[21] 	2.8017817371938
scalar tree_4_3_u10_r14_network.client[21] 	downloads[21] 	12123
scalar tree_4_3_u10_r14_network.client[21] 	avg_time[21] 	0.004263840102
scalar tree_4_3_u10_r14_network.client[22] 	hdistance[22] 	2.8363004057299
scalar tree_4_3_u10_r14_network.client[22] 	downloads[22] 	12077
scalar tree_4_3_u10_r14_network.client[22] 	avg_time[22] 	0.004313816632
scalar tree_4_3_u10_r14_network.client[23] 	hdistance[23] 	2.8168188290477
scalar tree_4_3_u10_r14_network.client[23] 	downloads[23] 	11939
scalar tree_4_3_u10_r14_network.client[23] 	avg_time[23] 	0.004281922661
scalar tree_4_3_u10_r14_network.client[24] 	hdistance[24] 	2.8393050128855
scalar tree_4_3_u10_r14_network.client[24] 	downloads[24] 	12029
scalar tree_4_3_u10_r14_network.client[24] 	avg_time[24] 	0.004321054435
scalar tree_4_3_u10_r14_network.client[25] 	hdistance[25] 	2.8472553699284
scalar tree_4_3_u10_r14_network.client[25] 	downloads[25] 	12151
scalar tree_4_3_u10_r14_network.client[25] 	avg_time[25] 	0.004334993904
scalar tree_4_3_u10_r14_network.client[26] 	hdistance[26] 	2.8171926910299
scalar tree_4_3_u10_r14_network.client[26] 	downloads[26] 	12040
scalar tree_4_3_u10_r14_network.client[26] 	avg_time[26] 	0.004284216253
scalar tree_4_3_u10_r14_network.client[27] 	hdistance[27] 	2.8292436124462
scalar tree_4_3_u10_r14_network.client[27] 	downloads[27] 	11859
scalar tree_4_3_u10_r14_network.client[27] 	avg_time[27] 	0.004302383408
scalar tree_4_3_u10_r14_network.client[28] 	hdistance[28] 	2.8641123670213
scalar tree_4_3_u10_r14_network.client[28] 	downloads[28] 	12032
scalar tree_4_3_u10_r14_network.client[28] 	avg_time[28] 	0.004361865338
scalar tree_4_3_u10_r14_network.client[29] 	hdistance[29] 	2.8331935592083
scalar tree_4_3_u10_r14_network.client[29] 	downloads[29] 	11924
scalar tree_4_3_u10_r14_network.client[29] 	avg_time[29] 	0.004307611943
scalar tree_4_3_u10_r14_network.client[30] 	hdistance[30] 	2.8533134772897
scalar tree_4_3_u10_r14_network.client[30] 	downloads[30] 	12087
scalar tree_4_3_u10_r14_network.client[30] 	avg_time[30] 	0.00434731227
scalar tree_4_3_u10_r14_network.client[31] 	hdistance[31] 	2.8456269317517
scalar tree_4_3_u10_r14_network.client[31] 	downloads[31] 	11971
scalar tree_4_3_u10_r14_network.client[31] 	avg_time[31] 	0.004328581596
scalar tree_4_3_u10_r14_network.client[32] 	hdistance[32] 	2.8354725787631
scalar tree_4_3_u10_r14_network.client[32] 	downloads[32] 	11998
scalar tree_4_3_u10_r14_network.client[32] 	avg_time[32] 	0.004311405101
scalar tree_4_3_u10_r14_network.client[33] 	hdistance[33] 	2.8478314951488
scalar tree_4_3_u10_r14_network.client[33] 	downloads[33] 	12059
scalar tree_4_3_u10_r14_network.client[33] 	avg_time[33] 	0.004332424635
scalar tree_4_3_u10_r14_network.client[34] 	hdistance[34] 	2.8397601399184
scalar tree_4_3_u10_r14_network.client[34] 	downloads[34] 	12007
scalar tree_4_3_u10_r14_network.client[34] 	avg_time[34] 	0.004317789506
scalar tree_4_3_u10_r14_network.client[35] 	hdistance[35] 	2.8409696767744
scalar tree_4_3_u10_r14_network.client[35] 	downloads[35] 	12004
scalar tree_4_3_u10_r14_network.client[35] 	avg_time[35] 	0.00432338084
scalar tree_4_3_u10_r14_network.client[36] 	hdistance[36] 	2.8238889806707
scalar tree_4_3_u10_r14_network.client[36] 	downloads[36] 	12106
scalar tree_4_3_u10_r14_network.client[36] 	avg_time[36] 	0.004296404353
scalar tree_4_3_u10_r14_network.client[37] 	hdistance[37] 	2.8674879307475
scalar tree_4_3_u10_r14_network.client[37] 	downloads[37] 	12014
scalar tree_4_3_u10_r14_network.client[37] 	avg_time[37] 	0.004362560629
scalar tree_4_3_u10_r14_network.client[38] 	hdistance[38] 	2.8467452160107
scalar tree_4_3_u10_r14_network.client[38] 	downloads[38] 	11967
scalar tree_4_3_u10_r14_network.client[38] 	avg_time[38] 	0.004332424583
scalar tree_4_3_u10_r14_network.client[39] 	hdistance[39] 	2.8029788994621
scalar tree_4_3_u10_r14_network.client[39] 	downloads[39] 	12085
scalar tree_4_3_u10_r14_network.client[39] 	avg_time[39] 	0.004271715356
