version 2
run General-115-20160902-14:20:31-7280
attr a 0.9
attr cd wfc0.01
attr configname General
attr cr lru
attr datetime 20160902-14:20:31
attr experiment General
attr fsize 1
attr inifile hw5115/scenario_Y/omnetp.ini
attr iterationvars "$name=tree_4_3, $un=05, $rep=16, $cd=wfc0.01, $cr=lru, $fsize=1, $a=0.9, $sl=nrr, $ttl=1000, $variance=0.05"
attr iterationvars2 "$name=tree_4_3, $un=05, $rep=16, $cd=wfc0.01, $cr=lru, $fsize=1, $a=0.9, $sl=nrr, $ttl=1000, $variance=0.05, $repetition=0"
attr measurement "$name=tree_4_3, $un=05, $rep=16, $cd=wfc0.01, $cr=lru, $fsize=1, $a=0.9, $sl=nrr, $ttl=1000, $variance=0.05"
attr name tree_4_3
attr network networks.${name}_u${un}_r${rep}_network
attr processid 7280
attr rep 16
attr repetition 0
attr replication #0
attr resultdir results
attr runnumber 115
attr seedset 16
attr sl nrr
attr ttl 1000
attr un 05
attr variance 0.05

scalar . 	a 	0.9
scalar . 	fsize 	1
scalar . 	rep 	16
scalar . 	ttl 	1000
scalar . 	un 	05
scalar . 	variance 	0.05
scalar tree_4_3_u05_r16_network.content_distribution 	repo-0 	0
scalar tree_4_3_u05_r16_network.content_distribution 	client-0 	13
scalar tree_4_3_u05_r16_network.content_distribution 	client-1 	14
scalar tree_4_3_u05_r16_network.content_distribution 	client-2 	15
scalar tree_4_3_u05_r16_network.content_distribution 	client-3 	16
scalar tree_4_3_u05_r16_network.content_distribution 	client-4 	17
scalar tree_4_3_u05_r16_network.content_distribution 	client-5 	18
scalar tree_4_3_u05_r16_network.content_distribution 	client-6 	19
scalar tree_4_3_u05_r16_network.content_distribution 	client-7 	20
scalar tree_4_3_u05_r16_network.content_distribution 	client-8 	21
scalar tree_4_3_u05_r16_network.content_distribution 	client-9 	22
scalar tree_4_3_u05_r16_network.content_distribution 	client-10 	23
scalar tree_4_3_u05_r16_network.content_distribution 	client-11 	24
scalar tree_4_3_u05_r16_network.content_distribution 	client-12 	25
scalar tree_4_3_u05_r16_network.content_distribution 	client-13 	26
scalar tree_4_3_u05_r16_network.content_distribution 	client-14 	27
scalar tree_4_3_u05_r16_network.content_distribution 	client-15 	28
scalar tree_4_3_u05_r16_network.content_distribution 	client-16 	29
scalar tree_4_3_u05_r16_network.content_distribution 	client-17 	30
scalar tree_4_3_u05_r16_network.content_distribution 	client-18 	31
scalar tree_4_3_u05_r16_network.content_distribution 	client-19 	32
scalar tree_4_3_u05_r16_network.content_distribution 	client-20 	33
scalar tree_4_3_u05_r16_network.content_distribution 	client-21 	34
scalar tree_4_3_u05_r16_network.content_distribution 	client-22 	35
scalar tree_4_3_u05_r16_network.content_distribution 	client-23 	36
scalar tree_4_3_u05_r16_network.content_distribution 	client-24 	37
scalar tree_4_3_u05_r16_network.content_distribution 	client-25 	38
scalar tree_4_3_u05_r16_network.content_distribution 	client-26 	39
scalar tree_4_3_u05_r16_network.content_distribution 	repo-0_card 	100000
scalar tree_4_3_u05_r16_network.content_distribution 	repo-0_price 	0
scalar tree_4_3_u05_r16_network.statistics 	stabilization_time 	1112.7
scalar tree_4_3_u05_r16_network.statistics 	p_hit 	0.22543454515653
scalar tree_4_3_u05_r16_network.statistics 	interests 	25132.425
scalar tree_4_3_u05_r16_network.statistics 	data 	17022.025
scalar tree_4_3_u05_r16_network.statistics 	hdistance 	2.6904880037804
scalar tree_4_3_u05_r16_network.statistics 	avg_time 	0.004197549976
scalar tree_4_3_u05_r16_network.statistics 	downloads 	324421
scalar tree_4_3_u05_r16_network.statistics 	total_cost 	0
scalar tree_4_3_u05_r16_network.statistics 	total_replicas 	100000
scalar tree_4_3_u05_r16_network.statistics 	inner_hit 	0.40834594554607
scalar tree_4_3_u05_r16_network.node[0].core_layer 	interests[0] 	194393
scalar tree_4_3_u05_r16_network.node[0].core_layer 	repo_load[0] 	191945
scalar tree_4_3_u05_r16_network.node[0].core_layer 	data[0] 	0
scalar tree_4_3_u05_r16_network.node[0].core_layer 	repo_int[0] 	191945
scalar tree_4_3_u05_r16_network.node[0].content_store 	p_hit[0] 	0.012593046045897
scalar tree_4_3_u05_r16_network.node[0].content_store 	hits[0] 	2448
scalar tree_4_3_u05_r16_network.node[0].content_store 	misses[0] 	191945
scalar tree_4_3_u05_r16_network.node[0].content_store 	decision_yes[0] 	2840
scalar tree_4_3_u05_r16_network.node[0].content_store 	decision_no[0] 	189105
scalar tree_4_3_u05_r16_network.node[0].content_store 	decision_ratio[0] 	0.014795905076975
scalar tree_4_3_u05_r16_network.node[1].core_layer 	interests[1] 	68831
scalar tree_4_3_u05_r16_network.node[1].core_layer 	data[1] 	67633
scalar tree_4_3_u05_r16_network.node[1].content_store 	p_hit[1] 	0.01740494835176
scalar tree_4_3_u05_r16_network.node[1].content_store 	hits[1] 	1198
scalar tree_4_3_u05_r16_network.node[1].content_store 	misses[1] 	67633
scalar tree_4_3_u05_r16_network.node[1].content_store 	decision_yes[1] 	782
scalar tree_4_3_u05_r16_network.node[1].content_store 	decision_no[1] 	66851
scalar tree_4_3_u05_r16_network.node[1].content_store 	decision_ratio[1] 	0.011562402968965
scalar tree_4_3_u05_r16_network.node[2].core_layer 	interests[2] 	71370
scalar tree_4_3_u05_r16_network.node[2].core_layer 	data[2] 	69337
scalar tree_4_3_u05_r16_network.node[2].content_store 	p_hit[2] 	0.028513380972397
scalar tree_4_3_u05_r16_network.node[2].content_store 	hits[2] 	2035
scalar tree_4_3_u05_r16_network.node[2].content_store 	misses[2] 	69335
scalar tree_4_3_u05_r16_network.node[2].content_store 	decision_yes[2] 	818
scalar tree_4_3_u05_r16_network.node[2].content_store 	decision_no[2] 	68519
scalar tree_4_3_u05_r16_network.node[2].content_store 	decision_ratio[2] 	0.011797453019311
scalar tree_4_3_u05_r16_network.node[3].core_layer 	interests[3] 	73539
scalar tree_4_3_u05_r16_network.node[3].core_layer 	data[3] 	71324
scalar tree_4_3_u05_r16_network.node[3].content_store 	p_hit[3] 	0.030120072342567
scalar tree_4_3_u05_r16_network.node[3].content_store 	hits[3] 	2215
scalar tree_4_3_u05_r16_network.node[3].content_store 	misses[3] 	71324
scalar tree_4_3_u05_r16_network.node[3].content_store 	decision_yes[3] 	859
scalar tree_4_3_u05_r16_network.node[3].content_store 	decision_no[3] 	70465
scalar tree_4_3_u05_r16_network.node[3].content_store 	decision_ratio[3] 	0.012043631877068
scalar tree_4_3_u05_r16_network.node[4].core_layer 	interests[4] 	25554
scalar tree_4_3_u05_r16_network.node[4].core_layer 	data[4] 	24022
scalar tree_4_3_u05_r16_network.node[4].content_store 	p_hit[4] 	0.059951475307193
scalar tree_4_3_u05_r16_network.node[4].content_store 	hits[4] 	1532
scalar tree_4_3_u05_r16_network.node[4].content_store 	misses[4] 	24022
scalar tree_4_3_u05_r16_network.node[4].content_store 	decision_yes[4] 	321
scalar tree_4_3_u05_r16_network.node[4].content_store 	decision_no[4] 	23701
scalar tree_4_3_u05_r16_network.node[4].content_store 	decision_ratio[4] 	0.013362750811756
scalar tree_4_3_u05_r16_network.node[5].core_layer 	interests[5] 	30009
scalar tree_4_3_u05_r16_network.node[5].core_layer 	data[5] 	26745
scalar tree_4_3_u05_r16_network.node[5].content_store 	p_hit[5] 	0.10876736978906
scalar tree_4_3_u05_r16_network.node[5].content_store 	hits[5] 	3264
scalar tree_4_3_u05_r16_network.node[5].content_store 	misses[5] 	26745
scalar tree_4_3_u05_r16_network.node[5].content_store 	decision_yes[5] 	504
scalar tree_4_3_u05_r16_network.node[5].content_store 	decision_no[5] 	26241
scalar tree_4_3_u05_r16_network.node[5].content_store 	decision_ratio[5] 	0.018844643858665
scalar tree_4_3_u05_r16_network.node[6].core_layer 	interests[6] 	28784
scalar tree_4_3_u05_r16_network.node[6].core_layer 	data[6] 	26343
scalar tree_4_3_u05_r16_network.node[6].content_store 	p_hit[6] 	0.084804057809894
scalar tree_4_3_u05_r16_network.node[6].content_store 	hits[6] 	2441
scalar tree_4_3_u05_r16_network.node[6].content_store 	misses[6] 	26343
scalar tree_4_3_u05_r16_network.node[6].content_store 	decision_yes[6] 	467
scalar tree_4_3_u05_r16_network.node[6].content_store 	decision_no[6] 	25876
scalar tree_4_3_u05_r16_network.node[6].content_store 	decision_ratio[6] 	0.017727669589644
scalar tree_4_3_u05_r16_network.node[7].core_layer 	interests[7] 	35098
scalar tree_4_3_u05_r16_network.node[7].core_layer 	data[7] 	33060
scalar tree_4_3_u05_r16_network.node[7].content_store 	p_hit[7] 	0.058094478317853
scalar tree_4_3_u05_r16_network.node[7].content_store 	hits[7] 	2039
scalar tree_4_3_u05_r16_network.node[7].content_store 	misses[7] 	33059
scalar tree_4_3_u05_r16_network.node[7].content_store 	decision_yes[7] 	503
scalar tree_4_3_u05_r16_network.node[7].content_store 	decision_no[7] 	32557
scalar tree_4_3_u05_r16_network.node[7].content_store 	decision_ratio[7] 	0.015214761040532
scalar tree_4_3_u05_r16_network.node[8].core_layer 	interests[8] 	35919
scalar tree_4_3_u05_r16_network.node[8].core_layer 	data[8] 	33333
scalar tree_4_3_u05_r16_network.node[8].content_store 	p_hit[8] 	0.071995322809655
scalar tree_4_3_u05_r16_network.node[8].content_store 	hits[8] 	2586
scalar tree_4_3_u05_r16_network.node[8].content_store 	misses[8] 	33333
scalar tree_4_3_u05_r16_network.node[8].content_store 	decision_yes[8] 	509
scalar tree_4_3_u05_r16_network.node[8].content_store 	decision_no[8] 	32824
scalar tree_4_3_u05_r16_network.node[8].content_store 	decision_ratio[8] 	0.015270152701527
scalar tree_4_3_u05_r16_network.node[9].core_layer 	interests[9] 	15289
scalar tree_4_3_u05_r16_network.node[9].core_layer 	data[9] 	11159
scalar tree_4_3_u05_r16_network.node[9].content_store 	p_hit[9] 	0.27012885080777
scalar tree_4_3_u05_r16_network.node[9].content_store 	hits[9] 	4130
scalar tree_4_3_u05_r16_network.node[9].content_store 	misses[9] 	11159
scalar tree_4_3_u05_r16_network.node[9].content_store 	decision_yes[9] 	330
scalar tree_4_3_u05_r16_network.node[9].content_store 	decision_no[9] 	10829
scalar tree_4_3_u05_r16_network.node[9].content_store 	decision_ratio[9] 	0.029572542342504
scalar tree_4_3_u05_r16_network.node[10].core_layer 	interests[10] 	27233
scalar tree_4_3_u05_r16_network.node[10].core_layer 	data[10] 	25443
scalar tree_4_3_u05_r16_network.node[10].content_store 	p_hit[10] 	0.065765798846987
scalar tree_4_3_u05_r16_network.node[10].content_store 	hits[10] 	1791
scalar tree_4_3_u05_r16_network.node[10].content_store 	misses[10] 	25442
scalar tree_4_3_u05_r16_network.node[10].content_store 	decision_yes[10] 	346
scalar tree_4_3_u05_r16_network.node[10].content_store 	decision_no[10] 	25097
scalar tree_4_3_u05_r16_network.node[10].content_store 	decision_ratio[10] 	0.013599025272177
scalar tree_4_3_u05_r16_network.node[11].core_layer 	interests[11] 	36076
scalar tree_4_3_u05_r16_network.node[11].core_layer 	data[11] 	33921
scalar tree_4_3_u05_r16_network.node[11].content_store 	p_hit[11] 	0.059707284621355
scalar tree_4_3_u05_r16_network.node[11].content_store 	hits[11] 	2154
scalar tree_4_3_u05_r16_network.node[11].content_store 	misses[11] 	33922
scalar tree_4_3_u05_r16_network.node[11].content_store 	decision_yes[11] 	480
scalar tree_4_3_u05_r16_network.node[11].content_store 	decision_no[11] 	33441
scalar tree_4_3_u05_r16_network.node[11].content_store 	decision_ratio[11] 	0.014150526222694
scalar tree_4_3_u05_r16_network.node[12].core_layer 	interests[12] 	20774
scalar tree_4_3_u05_r16_network.node[12].core_layer 	data[12] 	17722
scalar tree_4_3_u05_r16_network.node[12].content_store 	p_hit[12] 	0.14691441224608
scalar tree_4_3_u05_r16_network.node[12].content_store 	hits[12] 	3052
scalar tree_4_3_u05_r16_network.node[12].content_store 	misses[12] 	17722
scalar tree_4_3_u05_r16_network.node[12].content_store 	decision_yes[12] 	316
scalar tree_4_3_u05_r16_network.node[12].content_store 	decision_no[12] 	17406
scalar tree_4_3_u05_r16_network.node[12].content_store 	decision_ratio[12] 	0.017830944588647
scalar tree_4_3_u05_r16_network.node[13].core_layer 	interests[13] 	12274
scalar tree_4_3_u05_r16_network.node[13].core_layer 	data[13] 	8879
scalar tree_4_3_u05_r16_network.node[13].content_store 	p_hit[13] 	0.27660094508718
scalar tree_4_3_u05_r16_network.node[13].content_store 	hits[13] 	3395
scalar tree_4_3_u05_r16_network.node[13].content_store 	misses[13] 	8879
scalar tree_4_3_u05_r16_network.node[13].content_store 	decision_yes[13] 	114
scalar tree_4_3_u05_r16_network.node[13].content_store 	decision_no[13] 	8765
scalar tree_4_3_u05_r16_network.node[13].content_store 	decision_ratio[13] 	0.01283928370312
scalar tree_4_3_u05_r16_network.node[14].core_layer 	interests[14] 	12933
scalar tree_4_3_u05_r16_network.node[14].core_layer 	data[14] 	8885
scalar tree_4_3_u05_r16_network.node[14].content_store 	p_hit[14] 	0.31292043609371
scalar tree_4_3_u05_r16_network.node[14].content_store 	hits[14] 	4047
scalar tree_4_3_u05_r16_network.node[14].content_store 	misses[14] 	8886
scalar tree_4_3_u05_r16_network.node[14].content_store 	decision_yes[14] 	123
scalar tree_4_3_u05_r16_network.node[14].content_store 	decision_no[14] 	8762
scalar tree_4_3_u05_r16_network.node[14].content_store 	decision_ratio[14] 	0.013843556555993
scalar tree_4_3_u05_r16_network.node[15].core_layer 	interests[15] 	12929
scalar tree_4_3_u05_r16_network.node[15].core_layer 	data[15] 	8943
scalar tree_4_3_u05_r16_network.node[15].content_store 	p_hit[15] 	0.30829917240312
scalar tree_4_3_u05_r16_network.node[15].content_store 	hits[15] 	3986
scalar tree_4_3_u05_r16_network.node[15].content_store 	misses[15] 	8943
scalar tree_4_3_u05_r16_network.node[15].content_store 	decision_yes[15] 	140
scalar tree_4_3_u05_r16_network.node[15].content_store 	decision_no[15] 	8803
scalar tree_4_3_u05_r16_network.node[15].content_store 	decision_ratio[15] 	0.015654702001565
scalar tree_4_3_u05_r16_network.node[16].core_layer 	interests[16] 	12543
scalar tree_4_3_u05_r16_network.node[16].core_layer 	data[16] 	8895
scalar tree_4_3_u05_r16_network.node[16].content_store 	p_hit[16] 	0.29083951207845
scalar tree_4_3_u05_r16_network.node[16].content_store 	hits[16] 	3648
scalar tree_4_3_u05_r16_network.node[16].content_store 	misses[16] 	8895
scalar tree_4_3_u05_r16_network.node[16].content_store 	decision_yes[16] 	101
scalar tree_4_3_u05_r16_network.node[16].content_store 	decision_no[16] 	8794
scalar tree_4_3_u05_r16_network.node[16].content_store 	decision_ratio[16] 	0.011354693648117
scalar tree_4_3_u05_r16_network.node[17].core_layer 	interests[17] 	12621
scalar tree_4_3_u05_r16_network.node[17].core_layer 	data[17] 	8973
scalar tree_4_3_u05_r16_network.node[17].content_store 	p_hit[17] 	0.28904207273592
scalar tree_4_3_u05_r16_network.node[17].content_store 	hits[17] 	3648
scalar tree_4_3_u05_r16_network.node[17].content_store 	misses[17] 	8973
scalar tree_4_3_u05_r16_network.node[17].content_store 	decision_yes[17] 	103
scalar tree_4_3_u05_r16_network.node[17].content_store 	decision_no[17] 	8870
scalar tree_4_3_u05_r16_network.node[17].content_store 	decision_ratio[17] 	0.011478881087708
scalar tree_4_3_u05_r16_network.node[18].core_layer 	interests[18] 	13140
scalar tree_4_3_u05_r16_network.node[18].core_layer 	data[18] 	8906
scalar tree_4_3_u05_r16_network.node[18].content_store 	p_hit[18] 	0.32222222222222
scalar tree_4_3_u05_r16_network.node[18].content_store 	hits[18] 	4234
scalar tree_4_3_u05_r16_network.node[18].content_store 	misses[18] 	8906
scalar tree_4_3_u05_r16_network.node[18].content_store 	decision_yes[18] 	155
scalar tree_4_3_u05_r16_network.node[18].content_store 	decision_no[18] 	8751
scalar tree_4_3_u05_r16_network.node[18].content_store 	decision_ratio[18] 	0.017403997305188
scalar tree_4_3_u05_r16_network.node[19].core_layer 	interests[19] 	12430
scalar tree_4_3_u05_r16_network.node[19].core_layer 	data[19] 	8940
scalar tree_4_3_u05_r16_network.node[19].content_store 	p_hit[19] 	0.28077232502011
scalar tree_4_3_u05_r16_network.node[19].content_store 	hits[19] 	3490
scalar tree_4_3_u05_r16_network.node[19].content_store 	misses[19] 	8940
scalar tree_4_3_u05_r16_network.node[19].content_store 	decision_yes[19] 	140
scalar tree_4_3_u05_r16_network.node[19].content_store 	decision_no[19] 	8800
scalar tree_4_3_u05_r16_network.node[19].content_store 	decision_ratio[19] 	0.015659955257271
scalar tree_4_3_u05_r16_network.node[20].core_layer 	interests[20] 	12507
scalar tree_4_3_u05_r16_network.node[20].core_layer 	data[20] 	8951
scalar tree_4_3_u05_r16_network.node[20].content_store 	p_hit[20] 	0.284320780363
scalar tree_4_3_u05_r16_network.node[20].content_store 	hits[20] 	3556
scalar tree_4_3_u05_r16_network.node[20].content_store 	misses[20] 	8951
scalar tree_4_3_u05_r16_network.node[20].content_store 	decision_yes[20] 	114
scalar tree_4_3_u05_r16_network.node[20].content_store 	decision_no[20] 	8837
scalar tree_4_3_u05_r16_network.node[20].content_store 	decision_ratio[20] 	0.012736007150039
scalar tree_4_3_u05_r16_network.node[21].core_layer 	interests[21] 	12528
scalar tree_4_3_u05_r16_network.node[21].core_layer 	data[21] 	8741
scalar tree_4_3_u05_r16_network.node[21].content_store 	p_hit[21] 	0.30228288633461
scalar tree_4_3_u05_r16_network.node[21].content_store 	hits[21] 	3787
scalar tree_4_3_u05_r16_network.node[21].content_store 	misses[21] 	8741
scalar tree_4_3_u05_r16_network.node[21].content_store 	decision_yes[21] 	111
scalar tree_4_3_u05_r16_network.node[21].content_store 	decision_no[21] 	8630
scalar tree_4_3_u05_r16_network.node[21].content_store 	decision_ratio[21] 	0.012698775883766
scalar tree_4_3_u05_r16_network.node[22].core_layer 	interests[22] 	12546
scalar tree_4_3_u05_r16_network.node[22].core_layer 	data[22] 	8898
scalar tree_4_3_u05_r16_network.node[22].content_store 	p_hit[22] 	0.29084967320261
scalar tree_4_3_u05_r16_network.node[22].content_store 	hits[22] 	3649
scalar tree_4_3_u05_r16_network.node[22].content_store 	misses[22] 	8897
scalar tree_4_3_u05_r16_network.node[22].content_store 	decision_yes[22] 	117
scalar tree_4_3_u05_r16_network.node[22].content_store 	decision_no[22] 	8781
scalar tree_4_3_u05_r16_network.node[22].content_store 	decision_ratio[22] 	0.013149022252192
scalar tree_4_3_u05_r16_network.node[23].core_layer 	interests[23] 	13038
scalar tree_4_3_u05_r16_network.node[23].core_layer 	data[23] 	8941
scalar tree_4_3_u05_r16_network.node[23].content_store 	p_hit[23] 	0.31415861328425
scalar tree_4_3_u05_r16_network.node[23].content_store 	hits[23] 	4096
scalar tree_4_3_u05_r16_network.node[23].content_store 	misses[23] 	8942
scalar tree_4_3_u05_r16_network.node[23].content_store 	decision_yes[23] 	131
scalar tree_4_3_u05_r16_network.node[23].content_store 	decision_no[23] 	8810
scalar tree_4_3_u05_r16_network.node[23].content_store 	decision_ratio[23] 	0.014651604965887
scalar tree_4_3_u05_r16_network.node[24].core_layer 	interests[24] 	12391
scalar tree_4_3_u05_r16_network.node[24].core_layer 	data[24] 	8881
scalar tree_4_3_u05_r16_network.node[24].content_store 	p_hit[24] 	0.28327011540634
scalar tree_4_3_u05_r16_network.node[24].content_store 	hits[24] 	3510
scalar tree_4_3_u05_r16_network.node[24].content_store 	misses[24] 	8881
scalar tree_4_3_u05_r16_network.node[24].content_store 	decision_yes[24] 	123
scalar tree_4_3_u05_r16_network.node[24].content_store 	decision_no[24] 	8758
scalar tree_4_3_u05_r16_network.node[24].content_store 	decision_ratio[24] 	0.013849791690125
scalar tree_4_3_u05_r16_network.node[25].core_layer 	interests[25] 	12491
scalar tree_4_3_u05_r16_network.node[25].core_layer 	data[25] 	8903
scalar tree_4_3_u05_r16_network.node[25].content_store 	p_hit[25] 	0.28724681770875
scalar tree_4_3_u05_r16_network.node[25].content_store 	hits[25] 	3588
scalar tree_4_3_u05_r16_network.node[25].content_store 	misses[25] 	8903
scalar tree_4_3_u05_r16_network.node[25].content_store 	decision_yes[25] 	122
scalar tree_4_3_u05_r16_network.node[25].content_store 	decision_no[25] 	8781
scalar tree_4_3_u05_r16_network.node[25].content_store 	decision_ratio[25] 	0.013703246096821
scalar tree_4_3_u05_r16_network.node[26].core_layer 	interests[26] 	12503
scalar tree_4_3_u05_r16_network.node[26].core_layer 	data[26] 	8743
scalar tree_4_3_u05_r16_network.node[26].content_store 	p_hit[26] 	0.30072782532192
scalar tree_4_3_u05_r16_network.node[26].content_store 	hits[26] 	3760
scalar tree_4_3_u05_r16_network.node[26].content_store 	misses[26] 	8743
scalar tree_4_3_u05_r16_network.node[26].content_store 	decision_yes[26] 	121
scalar tree_4_3_u05_r16_network.node[26].content_store 	decision_no[26] 	8622
scalar tree_4_3_u05_r16_network.node[26].content_store 	decision_ratio[26] 	0.013839643143086
scalar tree_4_3_u05_r16_network.node[27].core_layer 	interests[27] 	13014
scalar tree_4_3_u05_r16_network.node[27].core_layer 	data[27] 	9044
scalar tree_4_3_u05_r16_network.node[27].content_store 	p_hit[27] 	0.30505609343784
scalar tree_4_3_u05_r16_network.node[27].content_store 	hits[27] 	3970
scalar tree_4_3_u05_r16_network.node[27].content_store 	misses[27] 	9044
scalar tree_4_3_u05_r16_network.node[27].content_store 	decision_yes[27] 	135
scalar tree_4_3_u05_r16_network.node[27].content_store 	decision_no[27] 	8909
scalar tree_4_3_u05_r16_network.node[27].content_store 	decision_ratio[27] 	0.014927023440955
scalar tree_4_3_u05_r16_network.node[28].core_layer 	interests[28] 	13070
scalar tree_4_3_u05_r16_network.node[28].core_layer 	data[28] 	9037
scalar tree_4_3_u05_r16_network.node[28].content_store 	p_hit[28] 	0.30856924254017
scalar tree_4_3_u05_r16_network.node[28].content_store 	hits[28] 	4033
scalar tree_4_3_u05_r16_network.node[28].content_store 	misses[28] 	9037
scalar tree_4_3_u05_r16_network.node[28].content_store 	decision_yes[28] 	160
scalar tree_4_3_u05_r16_network.node[28].content_store 	decision_no[28] 	8877
scalar tree_4_3_u05_r16_network.node[28].content_store 	decision_ratio[28] 	0.017704990594224
scalar tree_4_3_u05_r16_network.node[29].core_layer 	interests[29] 	13377
scalar tree_4_3_u05_r16_network.node[29].core_layer 	data[29] 	9165
scalar tree_4_3_u05_r16_network.node[29].content_store 	p_hit[29] 	0.31486880466472
scalar tree_4_3_u05_r16_network.node[29].content_store 	hits[29] 	4212
scalar tree_4_3_u05_r16_network.node[29].content_store 	misses[29] 	9165
scalar tree_4_3_u05_r16_network.node[29].content_store 	decision_yes[29] 	152
scalar tree_4_3_u05_r16_network.node[29].content_store 	decision_no[29] 	9013
scalar tree_4_3_u05_r16_network.node[29].content_store 	decision_ratio[29] 	0.01658483360611
scalar tree_4_3_u05_r16_network.node[30].core_layer 	interests[30] 	12524
scalar tree_4_3_u05_r16_network.node[30].core_layer 	data[30] 	8906
scalar tree_4_3_u05_r16_network.node[30].content_store 	p_hit[30] 	0.28888534014692
scalar tree_4_3_u05_r16_network.node[30].content_store 	hits[30] 	3618
scalar tree_4_3_u05_r16_network.node[30].content_store 	misses[30] 	8906
scalar tree_4_3_u05_r16_network.node[30].content_store 	decision_yes[30] 	117
scalar tree_4_3_u05_r16_network.node[30].content_store 	decision_no[30] 	8789
scalar tree_4_3_u05_r16_network.node[30].content_store 	decision_ratio[30] 	0.013137210869077
scalar tree_4_3_u05_r16_network.node[31].core_layer 	interests[31] 	12466
scalar tree_4_3_u05_r16_network.node[31].core_layer 	data[31] 	8970
scalar tree_4_3_u05_r16_network.node[31].content_store 	p_hit[31] 	0.28052302262153
scalar tree_4_3_u05_r16_network.node[31].content_store 	hits[31] 	3497
scalar tree_4_3_u05_r16_network.node[31].content_store 	misses[31] 	8969
scalar tree_4_3_u05_r16_network.node[31].content_store 	decision_yes[31] 	107
scalar tree_4_3_u05_r16_network.node[31].content_store 	decision_no[31] 	8863
scalar tree_4_3_u05_r16_network.node[31].content_store 	decision_ratio[31] 	0.011928651059086
scalar tree_4_3_u05_r16_network.node[32].core_layer 	interests[32] 	12317
scalar tree_4_3_u05_r16_network.node[32].core_layer 	data[32] 	8842
scalar tree_4_3_u05_r16_network.node[32].content_store 	p_hit[32] 	0.28204920029228
scalar tree_4_3_u05_r16_network.node[32].content_store 	hits[32] 	3474
scalar tree_4_3_u05_r16_network.node[32].content_store 	misses[32] 	8843
scalar tree_4_3_u05_r16_network.node[32].content_store 	decision_yes[32] 	93
scalar tree_4_3_u05_r16_network.node[32].content_store 	decision_no[32] 	8749
scalar tree_4_3_u05_r16_network.node[32].content_store 	decision_ratio[32] 	0.010517982356933
scalar tree_4_3_u05_r16_network.node[33].core_layer 	interests[33] 	12875
scalar tree_4_3_u05_r16_network.node[33].core_layer 	data[33] 	8879
scalar tree_4_3_u05_r16_network.node[33].content_store 	p_hit[33] 	0.31036893203883
scalar tree_4_3_u05_r16_network.node[33].content_store 	hits[33] 	3996
scalar tree_4_3_u05_r16_network.node[33].content_store 	misses[33] 	8879
scalar tree_4_3_u05_r16_network.node[33].content_store 	decision_yes[33] 	125
scalar tree_4_3_u05_r16_network.node[33].content_store 	decision_no[33] 	8754
scalar tree_4_3_u05_r16_network.node[33].content_store 	decision_ratio[33] 	0.014078161955175
scalar tree_4_3_u05_r16_network.node[34].core_layer 	interests[34] 	12871
scalar tree_4_3_u05_r16_network.node[34].core_layer 	data[34] 	9150
scalar tree_4_3_u05_r16_network.node[34].content_store 	p_hit[34] 	0.28909952606635
scalar tree_4_3_u05_r16_network.node[34].content_store 	hits[34] 	3721
scalar tree_4_3_u05_r16_network.node[34].content_store 	misses[34] 	9150
scalar tree_4_3_u05_r16_network.node[34].content_store 	decision_yes[34] 	118
scalar tree_4_3_u05_r16_network.node[34].content_store 	decision_no[34] 	9032
scalar tree_4_3_u05_r16_network.node[34].content_store 	decision_ratio[34] 	0.012896174863388
scalar tree_4_3_u05_r16_network.node[35].core_layer 	interests[35] 	12486
scalar tree_4_3_u05_r16_network.node[35].core_layer 	data[35] 	8867
scalar tree_4_3_u05_r16_network.node[35].content_store 	p_hit[35] 	0.2898446259811
scalar tree_4_3_u05_r16_network.node[35].content_store 	hits[35] 	3619
scalar tree_4_3_u05_r16_network.node[35].content_store 	misses[35] 	8867
scalar tree_4_3_u05_r16_network.node[35].content_store 	decision_yes[35] 	108
scalar tree_4_3_u05_r16_network.node[35].content_store 	decision_no[35] 	8759
scalar tree_4_3_u05_r16_network.node[35].content_store 	decision_ratio[35] 	0.012179993233337
scalar tree_4_3_u05_r16_network.node[36].core_layer 	interests[36] 	12707
scalar tree_4_3_u05_r16_network.node[36].core_layer 	data[36] 	8747
scalar tree_4_3_u05_r16_network.node[36].content_store 	p_hit[36] 	0.31163925395451
scalar tree_4_3_u05_r16_network.node[36].content_store 	hits[36] 	3960
scalar tree_4_3_u05_r16_network.node[36].content_store 	misses[36] 	8747
scalar tree_4_3_u05_r16_network.node[36].content_store 	decision_yes[36] 	139
scalar tree_4_3_u05_r16_network.node[36].content_store 	decision_no[36] 	8608
scalar tree_4_3_u05_r16_network.node[36].content_store 	decision_ratio[36] 	0.015891162684349
scalar tree_4_3_u05_r16_network.node[37].core_layer 	interests[37] 	12376
scalar tree_4_3_u05_r16_network.node[37].core_layer 	data[37] 	8898
scalar tree_4_3_u05_r16_network.node[37].content_store 	p_hit[37] 	0.28094699418229
scalar tree_4_3_u05_r16_network.node[37].content_store 	hits[37] 	3477
scalar tree_4_3_u05_r16_network.node[37].content_store 	misses[37] 	8899
scalar tree_4_3_u05_r16_network.node[37].content_store 	decision_yes[37] 	135
scalar tree_4_3_u05_r16_network.node[37].content_store 	decision_no[37] 	8763
scalar tree_4_3_u05_r16_network.node[37].content_store 	decision_ratio[37] 	0.015171948752529
scalar tree_4_3_u05_r16_network.node[38].core_layer 	interests[38] 	13112
scalar tree_4_3_u05_r16_network.node[38].core_layer 	data[38] 	9020
scalar tree_4_3_u05_r16_network.node[38].content_store 	p_hit[38] 	0.31208053691275
scalar tree_4_3_u05_r16_network.node[38].content_store 	hits[38] 	4092
scalar tree_4_3_u05_r16_network.node[38].content_store 	misses[38] 	9020
scalar tree_4_3_u05_r16_network.node[38].content_store 	decision_yes[38] 	140
scalar tree_4_3_u05_r16_network.node[38].content_store 	decision_no[38] 	8880
scalar tree_4_3_u05_r16_network.node[38].content_store 	decision_ratio[38] 	0.015521064301552
scalar tree_4_3_u05_r16_network.node[39].core_layer 	interests[39] 	12359
scalar tree_4_3_u05_r16_network.node[39].core_layer 	data[39] 	8835
scalar tree_4_3_u05_r16_network.node[39].content_store 	p_hit[39] 	0.28513633789142
scalar tree_4_3_u05_r16_network.node[39].content_store 	hits[39] 	3524
scalar tree_4_3_u05_r16_network.node[39].content_store 	misses[39] 	8835
scalar tree_4_3_u05_r16_network.node[39].content_store 	decision_yes[39] 	121
scalar tree_4_3_u05_r16_network.node[39].content_store 	decision_no[39] 	8714
scalar tree_4_3_u05_r16_network.node[39].content_store 	decision_ratio[39] 	0.013695529145444
scalar tree_4_3_u05_r16_network.client[13] 	hdistance[13] 	2.7432522492503
scalar tree_4_3_u05_r16_network.client[13] 	downloads[13] 	12004
scalar tree_4_3_u05_r16_network.client[13] 	avg_time[13] 	0.004263575846
scalar tree_4_3_u05_r16_network.client[14] 	hdistance[14] 	2.6556841046278
scalar tree_4_3_u05_r16_network.client[14] 	downloads[14] 	11928
scalar tree_4_3_u05_r16_network.client[14] 	avg_time[14] 	0.00415885464
scalar tree_4_3_u05_r16_network.client[15] 	hdistance[15] 	2.6875471066075
scalar tree_4_3_u05_r16_network.client[15] 	downloads[15] 	11941
scalar tree_4_3_u05_r16_network.client[15] 	avg_time[15] 	0.004151408132
scalar tree_4_3_u05_r16_network.client[16] 	hdistance[16] 	2.7015724322516
scalar tree_4_3_u05_r16_network.client[16] 	downloads[16] 	11956
scalar tree_4_3_u05_r16_network.client[16] 	avg_time[16] 	0.004239541975
scalar tree_4_3_u05_r16_network.client[17] 	hdistance[17] 	2.7019150707744
scalar tree_4_3_u05_r16_network.client[17] 	downloads[17] 	12010
scalar tree_4_3_u05_r16_network.client[17] 	avg_time[17] 	0.004262778005
scalar tree_4_3_u05_r16_network.client[18] 	hdistance[18] 	2.6198801198801
scalar tree_4_3_u05_r16_network.client[18] 	downloads[18] 	12012
scalar tree_4_3_u05_r16_network.client[18] 	avg_time[18] 	0.004102727587
scalar tree_4_3_u05_r16_network.client[19] 	hdistance[19] 	2.7193758344459
scalar tree_4_3_u05_r16_network.client[19] 	downloads[19] 	11984
scalar tree_4_3_u05_r16_network.client[19] 	avg_time[19] 	0.004218621822
scalar tree_4_3_u05_r16_network.client[20] 	hdistance[20] 	2.7294749896651
scalar tree_4_3_u05_r16_network.client[20] 	downloads[20] 	12095
scalar tree_4_3_u05_r16_network.client[20] 	avg_time[20] 	0.004227694376
scalar tree_4_3_u05_r16_network.client[21] 	hdistance[21] 	2.6844732900649
scalar tree_4_3_u05_r16_network.client[21] 	downloads[21] 	12018
scalar tree_4_3_u05_r16_network.client[21] 	avg_time[21] 	0.004149439511
scalar tree_4_3_u05_r16_network.client[22] 	hdistance[22] 	2.7216306156406
scalar tree_4_3_u05_r16_network.client[22] 	downloads[22] 	12020
scalar tree_4_3_u05_r16_network.client[22] 	avg_time[22] 	0.004250412967
scalar tree_4_3_u05_r16_network.client[23] 	hdistance[23] 	2.6620603015075
scalar tree_4_3_u05_r16_network.client[23] 	downloads[23] 	11940
scalar tree_4_3_u05_r16_network.client[23] 	avg_time[23] 	0.004144888138
scalar tree_4_3_u05_r16_network.client[24] 	hdistance[24] 	2.7224414406851
scalar tree_4_3_u05_r16_network.client[24] 	downloads[24] 	11911
scalar tree_4_3_u05_r16_network.client[24] 	avg_time[24] 	0.004257238237
scalar tree_4_3_u05_r16_network.client[25] 	hdistance[25] 	2.716363028581
scalar tree_4_3_u05_r16_network.client[25] 	downloads[25] 	11966
scalar tree_4_3_u05_r16_network.client[25] 	avg_time[25] 	0.004239843204
scalar tree_4_3_u05_r16_network.client[26] 	hdistance[26] 	2.6812845882945
scalar tree_4_3_u05_r16_network.client[26] 	downloads[26] 	11926
scalar tree_4_3_u05_r16_network.client[26] 	avg_time[26] 	0.004179228944
scalar tree_4_3_u05_r16_network.client[27] 	hdistance[27] 	2.6396077138619
scalar tree_4_3_u05_r16_network.client[27] 	downloads[27] 	12134
scalar tree_4_3_u05_r16_network.client[27] 	avg_time[27] 	0.004145868045
scalar tree_4_3_u05_r16_network.client[28] 	hdistance[28] 	2.6498506471955
scalar tree_4_3_u05_r16_network.client[28] 	downloads[28] 	12052
scalar tree_4_3_u05_r16_network.client[28] 	avg_time[28] 	0.004159090097
scalar tree_4_3_u05_r16_network.client[29] 	hdistance[29] 	2.6266850738996
scalar tree_4_3_u05_r16_network.client[29] 	downloads[29] 	12314
scalar tree_4_3_u05_r16_network.client[29] 	avg_time[29] 	0.004119535656
scalar tree_4_3_u05_r16_network.client[30] 	hdistance[30] 	2.6758483365137
scalar tree_4_3_u05_r16_network.client[30] 	downloads[30] 	12053
scalar tree_4_3_u05_r16_network.client[30] 	avg_time[30] 	0.004224339482
scalar tree_4_3_u05_r16_network.client[31] 	hdistance[31] 	2.7325119894162
scalar tree_4_3_u05_r16_network.client[31] 	downloads[31] 	12094
scalar tree_4_3_u05_r16_network.client[31] 	avg_time[31] 	0.004269221394
scalar tree_4_3_u05_r16_network.client[32] 	hdistance[32] 	2.7417240799866
scalar tree_4_3_u05_r16_network.client[32] 	downloads[32] 	11902
scalar tree_4_3_u05_r16_network.client[32] 	avg_time[32] 	0.004283826069
scalar tree_4_3_u05_r16_network.client[33] 	hdistance[33] 	2.6781734394638
scalar tree_4_3_u05_r16_network.client[33] 	downloads[33] 	11935
scalar tree_4_3_u05_r16_network.client[33] 	avg_time[33] 	0.004154165442
scalar tree_4_3_u05_r16_network.client[34] 	hdistance[34] 	2.7246470874574
scalar tree_4_3_u05_r16_network.client[34] 	downloads[34] 	12326
scalar tree_4_3_u05_r16_network.client[34] 	avg_time[34] 	0.004246954589
scalar tree_4_3_u05_r16_network.client[35] 	hdistance[35] 	2.706956956957
scalar tree_4_3_u05_r16_network.client[35] 	downloads[35] 	11988
scalar tree_4_3_u05_r16_network.client[35] 	avg_time[35] 	0.004222963262
scalar tree_4_3_u05_r16_network.client[36] 	hdistance[36] 	2.6765406877766
scalar tree_4_3_u05_r16_network.client[36] 	downloads[36] 	11748
scalar tree_4_3_u05_r16_network.client[36] 	avg_time[36] 	0.004146575214
scalar tree_4_3_u05_r16_network.client[37] 	hdistance[37] 	2.6936689930209
scalar tree_4_3_u05_r16_network.client[37] 	downloads[37] 	12036
scalar tree_4_3_u05_r16_network.client[37] 	avg_time[37] 	0.004194702802
scalar tree_4_3_u05_r16_network.client[38] 	hdistance[38] 	2.6537102473498
scalar tree_4_3_u05_r16_network.client[38] 	downloads[38] 	12169
scalar tree_4_3_u05_r16_network.client[38] 	avg_time[38] 	0.004118166102
scalar tree_4_3_u05_r16_network.client[39] 	hdistance[39] 	2.696295676896
scalar tree_4_3_u05_r16_network.client[39] 	downloads[39] 	11959
scalar tree_4_3_u05_r16_network.client[39] 	avg_time[39] 	0.004202187831
