version 2
run General-109-20160902-14:10:06-7280
attr a 0.9
attr cd wfc0.01
attr configname General
attr cr lru
attr datetime 20160902-14:10:06
attr experiment General
attr fsize 1
attr inifile hw5115/scenario_Y/omnetp.ini
attr iterationvars "$name=tree_4_3, $un=05, $rep=10, $cd=wfc0.01, $cr=lru, $fsize=1, $a=0.9, $sl=nrr, $ttl=1000, $variance=0.05"
attr iterationvars2 "$name=tree_4_3, $un=05, $rep=10, $cd=wfc0.01, $cr=lru, $fsize=1, $a=0.9, $sl=nrr, $ttl=1000, $variance=0.05, $repetition=0"
attr measurement "$name=tree_4_3, $un=05, $rep=10, $cd=wfc0.01, $cr=lru, $fsize=1, $a=0.9, $sl=nrr, $ttl=1000, $variance=0.05"
attr name tree_4_3
attr network networks.${name}_u${un}_r${rep}_network
attr processid 7280
attr rep 10
attr repetition 0
attr replication #0
attr resultdir results
attr runnumber 109
attr seedset 10
attr sl nrr
attr ttl 1000
attr un 05
attr variance 0.05

scalar . 	a 	0.9
scalar . 	fsize 	1
scalar . 	rep 	10
scalar . 	ttl 	1000
scalar . 	un 	05
scalar . 	variance 	0.05
scalar tree_4_3_u05_r10_network.content_distribution 	repo-0 	0
scalar tree_4_3_u05_r10_network.content_distribution 	client-0 	13
scalar tree_4_3_u05_r10_network.content_distribution 	client-1 	14
scalar tree_4_3_u05_r10_network.content_distribution 	client-2 	15
scalar tree_4_3_u05_r10_network.content_distribution 	client-3 	16
scalar tree_4_3_u05_r10_network.content_distribution 	client-4 	17
scalar tree_4_3_u05_r10_network.content_distribution 	client-5 	18
scalar tree_4_3_u05_r10_network.content_distribution 	client-6 	19
scalar tree_4_3_u05_r10_network.content_distribution 	client-7 	20
scalar tree_4_3_u05_r10_network.content_distribution 	client-8 	21
scalar tree_4_3_u05_r10_network.content_distribution 	client-9 	22
scalar tree_4_3_u05_r10_network.content_distribution 	client-10 	23
scalar tree_4_3_u05_r10_network.content_distribution 	client-11 	24
scalar tree_4_3_u05_r10_network.content_distribution 	client-12 	25
scalar tree_4_3_u05_r10_network.content_distribution 	client-13 	26
scalar tree_4_3_u05_r10_network.content_distribution 	client-14 	27
scalar tree_4_3_u05_r10_network.content_distribution 	client-15 	28
scalar tree_4_3_u05_r10_network.content_distribution 	client-16 	29
scalar tree_4_3_u05_r10_network.content_distribution 	client-17 	30
scalar tree_4_3_u05_r10_network.content_distribution 	client-18 	31
scalar tree_4_3_u05_r10_network.content_distribution 	client-19 	32
scalar tree_4_3_u05_r10_network.content_distribution 	client-20 	33
scalar tree_4_3_u05_r10_network.content_distribution 	client-21 	34
scalar tree_4_3_u05_r10_network.content_distribution 	client-22 	35
scalar tree_4_3_u05_r10_network.content_distribution 	client-23 	36
scalar tree_4_3_u05_r10_network.content_distribution 	client-24 	37
scalar tree_4_3_u05_r10_network.content_distribution 	client-25 	38
scalar tree_4_3_u05_r10_network.content_distribution 	client-26 	39
scalar tree_4_3_u05_r10_network.content_distribution 	repo-0_card 	100000
scalar tree_4_3_u05_r10_network.content_distribution 	repo-0_price 	0
scalar tree_4_3_u05_r10_network.statistics 	stabilization_time 	1106.2
scalar tree_4_3_u05_r10_network.statistics 	p_hit 	0.22421926165686
scalar tree_4_3_u05_r10_network.statistics 	interests 	25040.4
scalar tree_4_3_u05_r10_network.statistics 	data 	16938.575
scalar tree_4_3_u05_r10_network.statistics 	hdistance 	2.6915073400267
scalar tree_4_3_u05_r10_network.statistics 	avg_time 	0.004181494049
scalar tree_4_3_u05_r10_network.statistics 	downloads 	324075
scalar tree_4_3_u05_r10_network.statistics 	total_cost 	0
scalar tree_4_3_u05_r10_network.statistics 	total_replicas 	100000
scalar tree_4_3_u05_r10_network.statistics 	inner_hit 	0.39927794492016
scalar tree_4_3_u05_r10_network.node[0].core_layer 	interests[0] 	197270
scalar tree_4_3_u05_r10_network.node[0].core_layer 	repo_load[0] 	194679
scalar tree_4_3_u05_r10_network.node[0].core_layer 	data[0] 	0
scalar tree_4_3_u05_r10_network.node[0].core_layer 	repo_int[0] 	194679
scalar tree_4_3_u05_r10_network.node[0].content_store 	p_hit[0] 	0.013134282962437
scalar tree_4_3_u05_r10_network.node[0].content_store 	hits[0] 	2591
scalar tree_4_3_u05_r10_network.node[0].content_store 	misses[0] 	194679
scalar tree_4_3_u05_r10_network.node[0].content_store 	decision_yes[0] 	2942
scalar tree_4_3_u05_r10_network.node[0].content_store 	decision_no[0] 	191737
scalar tree_4_3_u05_r10_network.node[0].content_store 	decision_ratio[0] 	0.01511205625671
scalar tree_4_3_u05_r10_network.node[1].core_layer 	interests[1] 	68023
scalar tree_4_3_u05_r10_network.node[1].core_layer 	data[1] 	66994
scalar tree_4_3_u05_r10_network.node[1].content_store 	p_hit[1] 	0.015097834555959
scalar tree_4_3_u05_r10_network.node[1].content_store 	hits[1] 	1027
scalar tree_4_3_u05_r10_network.node[1].content_store 	misses[1] 	66996
scalar tree_4_3_u05_r10_network.node[1].content_store 	decision_yes[1] 	722
scalar tree_4_3_u05_r10_network.node[1].content_store 	decision_no[1] 	66272
scalar tree_4_3_u05_r10_network.node[1].content_store 	decision_ratio[1] 	0.010777084515031
scalar tree_4_3_u05_r10_network.node[2].core_layer 	interests[2] 	72071
scalar tree_4_3_u05_r10_network.node[2].core_layer 	data[2] 	70664
scalar tree_4_3_u05_r10_network.node[2].content_store 	p_hit[2] 	0.019522415395929
scalar tree_4_3_u05_r10_network.node[2].content_store 	hits[2] 	1407
scalar tree_4_3_u05_r10_network.node[2].content_store 	misses[2] 	70664
scalar tree_4_3_u05_r10_network.node[2].content_store 	decision_yes[2] 	830
scalar tree_4_3_u05_r10_network.node[2].content_store 	decision_no[2] 	69834
scalar tree_4_3_u05_r10_network.node[2].content_store 	decision_ratio[2] 	0.011745726253821
scalar tree_4_3_u05_r10_network.node[3].core_layer 	interests[3] 	72420
scalar tree_4_3_u05_r10_network.node[3].core_layer 	data[3] 	70555
scalar tree_4_3_u05_r10_network.node[3].content_store 	p_hit[3] 	0.025752554542944
scalar tree_4_3_u05_r10_network.node[3].content_store 	hits[3] 	1865
scalar tree_4_3_u05_r10_network.node[3].content_store 	misses[3] 	70555
scalar tree_4_3_u05_r10_network.node[3].content_store 	decision_yes[3] 	921
scalar tree_4_3_u05_r10_network.node[3].content_store 	decision_no[3] 	69634
scalar tree_4_3_u05_r10_network.node[3].content_store 	decision_ratio[3] 	0.013053646091702
scalar tree_4_3_u05_r10_network.node[4].core_layer 	interests[4] 	42894
scalar tree_4_3_u05_r10_network.node[4].core_layer 	data[4] 	40857
scalar tree_4_3_u05_r10_network.node[4].content_store 	p_hit[4] 	0.047465846039073
scalar tree_4_3_u05_r10_network.node[4].content_store 	hits[4] 	2036
scalar tree_4_3_u05_r10_network.node[4].content_store 	misses[4] 	40858
scalar tree_4_3_u05_r10_network.node[4].content_store 	decision_yes[4] 	571
scalar tree_4_3_u05_r10_network.node[4].content_store 	decision_no[4] 	40286
scalar tree_4_3_u05_r10_network.node[4].content_store 	decision_ratio[4] 	0.013975573341166
scalar tree_4_3_u05_r10_network.node[5].core_layer 	interests[5] 	26469
scalar tree_4_3_u05_r10_network.node[5].core_layer 	data[5] 	24157
scalar tree_4_3_u05_r10_network.node[5].content_store 	p_hit[5] 	0.087347463070006
scalar tree_4_3_u05_r10_network.node[5].content_store 	hits[5] 	2312
scalar tree_4_3_u05_r10_network.node[5].content_store 	misses[5] 	24157
scalar tree_4_3_u05_r10_network.node[5].content_store 	decision_yes[5] 	370
scalar tree_4_3_u05_r10_network.node[5].content_store 	decision_no[5] 	23787
scalar tree_4_3_u05_r10_network.node[5].content_store 	decision_ratio[5] 	0.015316471416153
scalar tree_4_3_u05_r10_network.node[6].core_layer 	interests[6] 	14612
scalar tree_4_3_u05_r10_network.node[6].core_layer 	data[6] 	11179
scalar tree_4_3_u05_r10_network.node[6].content_store 	p_hit[6] 	0.23494388174103
scalar tree_4_3_u05_r10_network.node[6].content_store 	hits[6] 	3433
scalar tree_4_3_u05_r10_network.node[6].content_store 	misses[6] 	11179
scalar tree_4_3_u05_r10_network.node[6].content_store 	decision_yes[6] 	318
scalar tree_4_3_u05_r10_network.node[6].content_store 	decision_no[6] 	10861
scalar tree_4_3_u05_r10_network.node[6].content_store 	decision_ratio[6] 	0.02844619375615
scalar tree_4_3_u05_r10_network.node[7].core_layer 	interests[7] 	26651
scalar tree_4_3_u05_r10_network.node[7].core_layer 	data[7] 	24709
scalar tree_4_3_u05_r10_network.node[7].content_store 	p_hit[7] 	0.07286780983828
scalar tree_4_3_u05_r10_network.node[7].content_store 	hits[7] 	1942
scalar tree_4_3_u05_r10_network.node[7].content_store 	misses[7] 	24709
scalar tree_4_3_u05_r10_network.node[7].content_store 	decision_yes[7] 	309
scalar tree_4_3_u05_r10_network.node[7].content_store 	decision_no[7] 	24400
scalar tree_4_3_u05_r10_network.node[7].content_store 	decision_ratio[7] 	0.012505564773969
scalar tree_4_3_u05_r10_network.node[8].core_layer 	interests[8] 	28322
scalar tree_4_3_u05_r10_network.node[8].core_layer 	data[8] 	26080
scalar tree_4_3_u05_r10_network.node[8].content_store 	p_hit[8] 	0.079161076195184
scalar tree_4_3_u05_r10_network.node[8].content_store 	hits[8] 	2242
scalar tree_4_3_u05_r10_network.node[8].content_store 	misses[8] 	26080
scalar tree_4_3_u05_r10_network.node[8].content_store 	decision_yes[8] 	403
scalar tree_4_3_u05_r10_network.node[8].content_store 	decision_no[8] 	25677
scalar tree_4_3_u05_r10_network.node[8].content_store 	decision_ratio[8] 	0.01545245398773
scalar tree_4_3_u05_r10_network.node[9].core_layer 	interests[9] 	28175
scalar tree_4_3_u05_r10_network.node[9].core_layer 	data[9] 	25883
scalar tree_4_3_u05_r10_network.node[9].content_store 	p_hit[9] 	0.08131322094055
scalar tree_4_3_u05_r10_network.node[9].content_store 	hits[9] 	2291
scalar tree_4_3_u05_r10_network.node[9].content_store 	misses[9] 	25884
scalar tree_4_3_u05_r10_network.node[9].content_store 	decision_yes[9] 	389
scalar tree_4_3_u05_r10_network.node[9].content_store 	decision_no[9] 	25494
scalar tree_4_3_u05_r10_network.node[9].content_store 	decision_ratio[9] 	0.015029169725302
scalar tree_4_3_u05_r10_network.node[10].core_layer 	interests[10] 	44284
scalar tree_4_3_u05_r10_network.node[10].core_layer 	data[10] 	41906
scalar tree_4_3_u05_r10_network.node[10].content_store 	p_hit[10] 	0.053653689820251
scalar tree_4_3_u05_r10_network.node[10].content_store 	hits[10] 	2376
scalar tree_4_3_u05_r10_network.node[10].content_store 	misses[10] 	41908
scalar tree_4_3_u05_r10_network.node[10].content_store 	decision_yes[10] 	572
scalar tree_4_3_u05_r10_network.node[10].content_store 	decision_no[10] 	41334
scalar tree_4_3_u05_r10_network.node[10].content_store 	decision_ratio[10] 	0.013649596716461
scalar tree_4_3_u05_r10_network.node[11].core_layer 	interests[11] 	18668
scalar tree_4_3_u05_r10_network.node[11].core_layer 	data[11] 	16774
scalar tree_4_3_u05_r10_network.node[11].content_store 	p_hit[11] 	0.10145703878294
scalar tree_4_3_u05_r10_network.node[11].content_store 	hits[11] 	1894
scalar tree_4_3_u05_r10_network.node[11].content_store 	misses[11] 	16774
scalar tree_4_3_u05_r10_network.node[11].content_store 	decision_yes[11] 	241
scalar tree_4_3_u05_r10_network.node[11].content_store 	decision_no[11] 	16533
scalar tree_4_3_u05_r10_network.node[11].content_store 	decision_ratio[11] 	0.014367473470848
scalar tree_4_3_u05_r10_network.node[12].core_layer 	interests[12] 	20763
scalar tree_4_3_u05_r10_network.node[12].core_layer 	data[12] 	17889
scalar tree_4_3_u05_r10_network.node[12].content_store 	p_hit[12] 	0.13841930356885
scalar tree_4_3_u05_r10_network.node[12].content_store 	hits[12] 	2874
scalar tree_4_3_u05_r10_network.node[12].content_store 	misses[12] 	17889
scalar tree_4_3_u05_r10_network.node[12].content_store 	decision_yes[12] 	325
scalar tree_4_3_u05_r10_network.node[12].content_store 	decision_no[12] 	17564
scalar tree_4_3_u05_r10_network.node[12].content_store 	decision_ratio[12] 	0.018167589021186
scalar tree_4_3_u05_r10_network.node[13].core_layer 	interests[13] 	12418
scalar tree_4_3_u05_r10_network.node[13].core_layer 	data[13] 	8978
scalar tree_4_3_u05_r10_network.node[13].content_store 	p_hit[13] 	0.2770172330488
scalar tree_4_3_u05_r10_network.node[13].content_store 	hits[13] 	3440
scalar tree_4_3_u05_r10_network.node[13].content_store 	misses[13] 	8978
scalar tree_4_3_u05_r10_network.node[13].content_store 	decision_yes[13] 	125
scalar tree_4_3_u05_r10_network.node[13].content_store 	decision_no[13] 	8853
scalar tree_4_3_u05_r10_network.node[13].content_store 	decision_ratio[13] 	0.013922922699933
scalar tree_4_3_u05_r10_network.node[14].core_layer 	interests[14] 	12880
scalar tree_4_3_u05_r10_network.node[14].core_layer 	data[14] 	8874
scalar tree_4_3_u05_r10_network.node[14].content_store 	p_hit[14] 	0.3110248447205
scalar tree_4_3_u05_r10_network.node[14].content_store 	hits[14] 	4006
scalar tree_4_3_u05_r10_network.node[14].content_store 	misses[14] 	8874
scalar tree_4_3_u05_r10_network.node[14].content_store 	decision_yes[14] 	137
scalar tree_4_3_u05_r10_network.node[14].content_store 	decision_no[14] 	8737
scalar tree_4_3_u05_r10_network.node[14].content_store 	decision_ratio[14] 	0.015438359251747
scalar tree_4_3_u05_r10_network.node[15].core_layer 	interests[15] 	12535
scalar tree_4_3_u05_r10_network.node[15].core_layer 	data[15] 	8878
scalar tree_4_3_u05_r10_network.node[15].content_store 	p_hit[15] 	0.2918228958915
scalar tree_4_3_u05_r10_network.node[15].content_store 	hits[15] 	3658
scalar tree_4_3_u05_r10_network.node[15].content_store 	misses[15] 	8877
scalar tree_4_3_u05_r10_network.node[15].content_store 	decision_yes[15] 	95
scalar tree_4_3_u05_r10_network.node[15].content_store 	decision_no[15] 	8783
scalar tree_4_3_u05_r10_network.node[15].content_store 	decision_ratio[15] 	0.0107006082451
scalar tree_4_3_u05_r10_network.node[16].core_layer 	interests[16] 	12747
scalar tree_4_3_u05_r10_network.node[16].core_layer 	data[16] 	8773
scalar tree_4_3_u05_r10_network.node[16].content_store 	p_hit[16] 	0.31168117988546
scalar tree_4_3_u05_r10_network.node[16].content_store 	hits[16] 	3973
scalar tree_4_3_u05_r10_network.node[16].content_store 	misses[16] 	8774
scalar tree_4_3_u05_r10_network.node[16].content_store 	decision_yes[16] 	144
scalar tree_4_3_u05_r10_network.node[16].content_store 	decision_no[16] 	8629
scalar tree_4_3_u05_r10_network.node[16].content_store 	decision_ratio[16] 	0.016413997492306
scalar tree_4_3_u05_r10_network.node[17].core_layer 	interests[17] 	12372
scalar tree_4_3_u05_r10_network.node[17].core_layer 	data[17] 	8793
scalar tree_4_3_u05_r10_network.node[17].content_store 	p_hit[17] 	0.28928225024248
scalar tree_4_3_u05_r10_network.node[17].content_store 	hits[17] 	3579
scalar tree_4_3_u05_r10_network.node[17].content_store 	misses[17] 	8793
scalar tree_4_3_u05_r10_network.node[17].content_store 	decision_yes[17] 	120
scalar tree_4_3_u05_r10_network.node[17].content_store 	decision_no[17] 	8673
scalar tree_4_3_u05_r10_network.node[17].content_store 	decision_ratio[17] 	0.013647219379052
scalar tree_4_3_u05_r10_network.node[18].core_layer 	interests[18] 	12846
scalar tree_4_3_u05_r10_network.node[18].core_layer 	data[18] 	8856
scalar tree_4_3_u05_r10_network.node[18].content_store 	p_hit[18] 	0.31060252218589
scalar tree_4_3_u05_r10_network.node[18].content_store 	hits[18] 	3990
scalar tree_4_3_u05_r10_network.node[18].content_store 	misses[18] 	8856
scalar tree_4_3_u05_r10_network.node[18].content_store 	decision_yes[18] 	148
scalar tree_4_3_u05_r10_network.node[18].content_store 	decision_no[18] 	8708
scalar tree_4_3_u05_r10_network.node[18].content_store 	decision_ratio[18] 	0.016711833785005
scalar tree_4_3_u05_r10_network.node[19].core_layer 	interests[19] 	13085
scalar tree_4_3_u05_r10_network.node[19].core_layer 	data[19] 	9033
scalar tree_4_3_u05_r10_network.node[19].content_store 	p_hit[19] 	0.30966755827283
scalar tree_4_3_u05_r10_network.node[19].content_store 	hits[19] 	4052
scalar tree_4_3_u05_r10_network.node[19].content_store 	misses[19] 	9033
scalar tree_4_3_u05_r10_network.node[19].content_store 	decision_yes[19] 	134
scalar tree_4_3_u05_r10_network.node[19].content_store 	decision_no[19] 	8899
scalar tree_4_3_u05_r10_network.node[19].content_store 	decision_ratio[19] 	0.01483449573785
scalar tree_4_3_u05_r10_network.node[20].core_layer 	interests[20] 	12834
scalar tree_4_3_u05_r10_network.node[20].core_layer 	data[20] 	9043
scalar tree_4_3_u05_r10_network.node[20].content_store 	p_hit[20] 	0.29538725261025
scalar tree_4_3_u05_r10_network.node[20].content_store 	hits[20] 	3791
scalar tree_4_3_u05_r10_network.node[20].content_store 	misses[20] 	9043
scalar tree_4_3_u05_r10_network.node[20].content_store 	decision_yes[20] 	150
scalar tree_4_3_u05_r10_network.node[20].content_store 	decision_no[20] 	8893
scalar tree_4_3_u05_r10_network.node[20].content_store 	decision_ratio[20] 	0.016587415680637
scalar tree_4_3_u05_r10_network.node[21].core_layer 	interests[21] 	12289
scalar tree_4_3_u05_r10_network.node[21].core_layer 	data[21] 	8907
scalar tree_4_3_u05_r10_network.node[21].content_store 	p_hit[21] 	0.27520546830499
scalar tree_4_3_u05_r10_network.node[21].content_store 	hits[21] 	3382
scalar tree_4_3_u05_r10_network.node[21].content_store 	misses[21] 	8907
scalar tree_4_3_u05_r10_network.node[21].content_store 	decision_yes[21] 	109
scalar tree_4_3_u05_r10_network.node[21].content_store 	decision_no[21] 	8798
scalar tree_4_3_u05_r10_network.node[21].content_store 	decision_ratio[21] 	0.012237565959358
scalar tree_4_3_u05_r10_network.node[22].core_layer 	interests[22] 	12427
scalar tree_4_3_u05_r10_network.node[22].core_layer 	data[22] 	8999
scalar tree_4_3_u05_r10_network.node[22].content_store 	p_hit[22] 	0.27585096966283
scalar tree_4_3_u05_r10_network.node[22].content_store 	hits[22] 	3428
scalar tree_4_3_u05_r10_network.node[22].content_store 	misses[22] 	8999
scalar tree_4_3_u05_r10_network.node[22].content_store 	decision_yes[22] 	132
scalar tree_4_3_u05_r10_network.node[22].content_store 	decision_no[22] 	8867
scalar tree_4_3_u05_r10_network.node[22].content_store 	decision_ratio[22] 	0.014668296477386
scalar tree_4_3_u05_r10_network.node[23].core_layer 	interests[23] 	12859
scalar tree_4_3_u05_r10_network.node[23].core_layer 	data[23] 	8831
scalar tree_4_3_u05_r10_network.node[23].content_store 	p_hit[23] 	0.31332140912979
scalar tree_4_3_u05_r10_network.node[23].content_store 	hits[23] 	4029
scalar tree_4_3_u05_r10_network.node[23].content_store 	misses[23] 	8830
scalar tree_4_3_u05_r10_network.node[23].content_store 	decision_yes[23] 	132
scalar tree_4_3_u05_r10_network.node[23].content_store 	decision_no[23] 	8699
scalar tree_4_3_u05_r10_network.node[23].content_store 	decision_ratio[23] 	0.014947344581588
scalar tree_4_3_u05_r10_network.node[24].core_layer 	interests[24] 	12779
scalar tree_4_3_u05_r10_network.node[24].core_layer 	data[24] 	8737
scalar tree_4_3_u05_r10_network.node[24].content_store 	p_hit[24] 	0.31637843336724
scalar tree_4_3_u05_r10_network.node[24].content_store 	hits[24] 	4043
scalar tree_4_3_u05_r10_network.node[24].content_store 	misses[24] 	8736
scalar tree_4_3_u05_r10_network.node[24].content_store 	decision_yes[24] 	125
scalar tree_4_3_u05_r10_network.node[24].content_store 	decision_no[24] 	8612
scalar tree_4_3_u05_r10_network.node[24].content_store 	decision_ratio[24] 	0.014306970355957
scalar tree_4_3_u05_r10_network.node[25].core_layer 	interests[25] 	12372
scalar tree_4_3_u05_r10_network.node[25].core_layer 	data[25] 	8765
scalar tree_4_3_u05_r10_network.node[25].content_store 	p_hit[25] 	0.29154542515357
scalar tree_4_3_u05_r10_network.node[25].content_store 	hits[25] 	3607
scalar tree_4_3_u05_r10_network.node[25].content_store 	misses[25] 	8765
scalar tree_4_3_u05_r10_network.node[25].content_store 	decision_yes[25] 	127
scalar tree_4_3_u05_r10_network.node[25].content_store 	decision_no[25] 	8638
scalar tree_4_3_u05_r10_network.node[25].content_store 	decision_ratio[25] 	0.014489446662864
scalar tree_4_3_u05_r10_network.node[26].core_layer 	interests[26] 	12722
scalar tree_4_3_u05_r10_network.node[26].core_layer 	data[26] 	8968
scalar tree_4_3_u05_r10_network.node[26].content_store 	p_hit[26] 	0.29507939003301
scalar tree_4_3_u05_r10_network.node[26].content_store 	hits[26] 	3754
scalar tree_4_3_u05_r10_network.node[26].content_store 	misses[26] 	8968
scalar tree_4_3_u05_r10_network.node[26].content_store 	decision_yes[26] 	113
scalar tree_4_3_u05_r10_network.node[26].content_store 	decision_no[26] 	8855
scalar tree_4_3_u05_r10_network.node[26].content_store 	decision_ratio[26] 	0.012600356824264
scalar tree_4_3_u05_r10_network.node[27].core_layer 	interests[27] 	12441
scalar tree_4_3_u05_r10_network.node[27].core_layer 	data[27] 	8874
scalar tree_4_3_u05_r10_network.node[27].content_store 	p_hit[27] 	0.28671328671329
scalar tree_4_3_u05_r10_network.node[27].content_store 	hits[27] 	3567
scalar tree_4_3_u05_r10_network.node[27].content_store 	misses[27] 	8874
scalar tree_4_3_u05_r10_network.node[27].content_store 	decision_yes[27] 	96
scalar tree_4_3_u05_r10_network.node[27].content_store 	decision_no[27] 	8778
scalar tree_4_3_u05_r10_network.node[27].content_store 	decision_ratio[27] 	0.010818120351589
scalar tree_4_3_u05_r10_network.node[28].core_layer 	interests[28] 	12387
scalar tree_4_3_u05_r10_network.node[28].core_layer 	data[28] 	8920
scalar tree_4_3_u05_r10_network.node[28].content_store 	p_hit[28] 	0.27989020747558
scalar tree_4_3_u05_r10_network.node[28].content_store 	hits[28] 	3467
scalar tree_4_3_u05_r10_network.node[28].content_store 	misses[28] 	8920
scalar tree_4_3_u05_r10_network.node[28].content_store 	decision_yes[28] 	138
scalar tree_4_3_u05_r10_network.node[28].content_store 	decision_no[28] 	8782
scalar tree_4_3_u05_r10_network.node[28].content_store 	decision_ratio[28] 	0.015470852017937
scalar tree_4_3_u05_r10_network.node[29].core_layer 	interests[29] 	12554
scalar tree_4_3_u05_r10_network.node[29].core_layer 	data[29] 	8929
scalar tree_4_3_u05_r10_network.node[29].content_store 	p_hit[29] 	0.28875258881631
scalar tree_4_3_u05_r10_network.node[29].content_store 	hits[29] 	3625
scalar tree_4_3_u05_r10_network.node[29].content_store 	misses[29] 	8929
scalar tree_4_3_u05_r10_network.node[29].content_store 	decision_yes[29] 	133
scalar tree_4_3_u05_r10_network.node[29].content_store 	decision_no[29] 	8796
scalar tree_4_3_u05_r10_network.node[29].content_store 	decision_ratio[29] 	0.014895285026319
scalar tree_4_3_u05_r10_network.node[30].core_layer 	interests[30] 	12459
scalar tree_4_3_u05_r10_network.node[30].core_layer 	data[30] 	8714
scalar tree_4_3_u05_r10_network.node[30].content_store 	p_hit[30] 	0.30058592182358
scalar tree_4_3_u05_r10_network.node[30].content_store 	hits[30] 	3745
scalar tree_4_3_u05_r10_network.node[30].content_store 	misses[30] 	8714
scalar tree_4_3_u05_r10_network.node[30].content_store 	decision_yes[30] 	90
scalar tree_4_3_u05_r10_network.node[30].content_store 	decision_no[30] 	8624
scalar tree_4_3_u05_r10_network.node[30].content_store 	decision_ratio[30] 	0.010328207482213
scalar tree_4_3_u05_r10_network.node[31].core_layer 	interests[31] 	12516
scalar tree_4_3_u05_r10_network.node[31].core_layer 	data[31] 	8889
scalar tree_4_3_u05_r10_network.node[31].content_store 	p_hit[31] 	0.28978906999041
scalar tree_4_3_u05_r10_network.node[31].content_store 	hits[31] 	3627
scalar tree_4_3_u05_r10_network.node[31].content_store 	misses[31] 	8889
scalar tree_4_3_u05_r10_network.node[31].content_store 	decision_yes[31] 	118
scalar tree_4_3_u05_r10_network.node[31].content_store 	decision_no[31] 	8771
scalar tree_4_3_u05_r10_network.node[31].content_store 	decision_ratio[31] 	0.013274834064574
scalar tree_4_3_u05_r10_network.node[32].core_layer 	interests[32] 	12422
scalar tree_4_3_u05_r10_network.node[32].core_layer 	data[32] 	8802
scalar tree_4_3_u05_r10_network.node[32].content_store 	p_hit[32] 	0.29141845113508
scalar tree_4_3_u05_r10_network.node[32].content_store 	hits[32] 	3620
scalar tree_4_3_u05_r10_network.node[32].content_store 	misses[32] 	8802
scalar tree_4_3_u05_r10_network.node[32].content_store 	decision_yes[32] 	116
scalar tree_4_3_u05_r10_network.node[32].content_store 	decision_no[32] 	8686
scalar tree_4_3_u05_r10_network.node[32].content_store 	decision_ratio[32] 	0.013178822994774
scalar tree_4_3_u05_r10_network.node[33].core_layer 	interests[33] 	13121
scalar tree_4_3_u05_r10_network.node[33].core_layer 	data[33] 	8964
scalar tree_4_3_u05_r10_network.node[33].content_store 	p_hit[33] 	0.3168203643015
scalar tree_4_3_u05_r10_network.node[33].content_store 	hits[33] 	4157
scalar tree_4_3_u05_r10_network.node[33].content_store 	misses[33] 	8964
scalar tree_4_3_u05_r10_network.node[33].content_store 	decision_yes[33] 	148
scalar tree_4_3_u05_r10_network.node[33].content_store 	decision_no[33] 	8816
scalar tree_4_3_u05_r10_network.node[33].content_store 	decision_ratio[33] 	0.016510486390004
scalar tree_4_3_u05_r10_network.node[34].core_layer 	interests[34] 	13069
scalar tree_4_3_u05_r10_network.node[34].core_layer 	data[34] 	9045
scalar tree_4_3_u05_r10_network.node[34].content_store 	p_hit[34] 	0.30790420078047
scalar tree_4_3_u05_r10_network.node[34].content_store 	hits[34] 	4024
scalar tree_4_3_u05_r10_network.node[34].content_store 	misses[34] 	9045
scalar tree_4_3_u05_r10_network.node[34].content_store 	decision_yes[34] 	126
scalar tree_4_3_u05_r10_network.node[34].content_store 	decision_no[34] 	8919
scalar tree_4_3_u05_r10_network.node[34].content_store 	decision_ratio[34] 	0.013930348258706
scalar tree_4_3_u05_r10_network.node[35].core_layer 	interests[35] 	12298
scalar tree_4_3_u05_r10_network.node[35].core_layer 	data[35] 	8861
scalar tree_4_3_u05_r10_network.node[35].content_store 	p_hit[35] 	0.27947633761587
scalar tree_4_3_u05_r10_network.node[35].content_store 	hits[35] 	3437
scalar tree_4_3_u05_r10_network.node[35].content_store 	misses[35] 	8861
scalar tree_4_3_u05_r10_network.node[35].content_store 	decision_yes[35] 	120
scalar tree_4_3_u05_r10_network.node[35].content_store 	decision_no[35] 	8741
scalar tree_4_3_u05_r10_network.node[35].content_store 	decision_ratio[35] 	0.013542489560998
scalar tree_4_3_u05_r10_network.node[36].core_layer 	interests[36] 	12752
scalar tree_4_3_u05_r10_network.node[36].core_layer 	data[36] 	8821
scalar tree_4_3_u05_r10_network.node[36].content_store 	p_hit[36] 	0.30826537013802
scalar tree_4_3_u05_r10_network.node[36].content_store 	hits[36] 	3931
scalar tree_4_3_u05_r10_network.node[36].content_store 	misses[36] 	8821
scalar tree_4_3_u05_r10_network.node[36].content_store 	decision_yes[36] 	150
scalar tree_4_3_u05_r10_network.node[36].content_store 	decision_no[36] 	8671
scalar tree_4_3_u05_r10_network.node[36].content_store 	decision_ratio[36] 	0.017004874730756
scalar tree_4_3_u05_r10_network.node[37].core_layer 	interests[37] 	12990
scalar tree_4_3_u05_r10_network.node[37].core_layer 	data[37] 	8937
scalar tree_4_3_u05_r10_network.node[37].content_store 	p_hit[37] 	0.31193225558122
scalar tree_4_3_u05_r10_network.node[37].content_store 	hits[37] 	4052
scalar tree_4_3_u05_r10_network.node[37].content_store 	misses[37] 	8938
scalar tree_4_3_u05_r10_network.node[37].content_store 	decision_yes[37] 	145
scalar tree_4_3_u05_r10_network.node[37].content_store 	decision_no[37] 	8792
scalar tree_4_3_u05_r10_network.node[37].content_store 	decision_ratio[37] 	0.0162246838984
scalar tree_4_3_u05_r10_network.node[38].core_layer 	interests[38] 	12541
scalar tree_4_3_u05_r10_network.node[38].core_layer 	data[38] 	8882
scalar tree_4_3_u05_r10_network.node[38].content_store 	p_hit[38] 	0.29176301730325
scalar tree_4_3_u05_r10_network.node[38].content_store 	hits[38] 	3659
scalar tree_4_3_u05_r10_network.node[38].content_store 	misses[38] 	8882
scalar tree_4_3_u05_r10_network.node[38].content_store 	decision_yes[38] 	134
scalar tree_4_3_u05_r10_network.node[38].content_store 	decision_no[38] 	8748
scalar tree_4_3_u05_r10_network.node[38].content_store 	decision_ratio[38] 	0.015086692186444
scalar tree_4_3_u05_r10_network.node[39].core_layer 	interests[39] 	12279
scalar tree_4_3_u05_r10_network.node[39].core_layer 	data[39] 	8823
scalar tree_4_3_u05_r10_network.node[39].content_store 	p_hit[39] 	0.28145614463719
scalar tree_4_3_u05_r10_network.node[39].content_store 	hits[39] 	3456
scalar tree_4_3_u05_r10_network.node[39].content_store 	misses[39] 	8823
scalar tree_4_3_u05_r10_network.node[39].content_store 	decision_yes[39] 	103
scalar tree_4_3_u05_r10_network.node[39].content_store 	decision_no[39] 	8720
scalar tree_4_3_u05_r10_network.node[39].content_store 	decision_ratio[39] 	0.01167403377536
scalar tree_4_3_u05_r10_network.client[13] 	hdistance[13] 	2.7487231013983
scalar tree_4_3_u05_r10_network.client[13] 	downloads[13] 	11943
scalar tree_4_3_u05_r10_network.client[13] 	avg_time[13] 	0.004269108628
scalar tree_4_3_u05_r10_network.client[14] 	hdistance[14] 	2.660751478797
scalar tree_4_3_u05_r10_network.client[14] 	downloads[14] 	12003
scalar tree_4_3_u05_r10_network.client[14] 	avg_time[14] 	0.004106470401
scalar tree_4_3_u05_r10_network.client[15] 	hdistance[15] 	2.7180912863071
scalar tree_4_3_u05_r10_network.client[15] 	downloads[15] 	12050
scalar tree_4_3_u05_r10_network.client[15] 	avg_time[15] 	0.004209955477
scalar tree_4_3_u05_r10_network.client[16] 	hdistance[16] 	2.6502907221707
scalar tree_4_3_u05_r10_network.client[16] 	downloads[16] 	11867
scalar tree_4_3_u05_r10_network.client[16] 	avg_time[16] 	0.004090500112
scalar tree_4_3_u05_r10_network.client[17] 	hdistance[17] 	2.7020459290188
scalar tree_4_3_u05_r10_network.client[17] 	downloads[17] 	11975
scalar tree_4_3_u05_r10_network.client[17] 	avg_time[17] 	0.004191239849
scalar tree_4_3_u05_r10_network.client[18] 	hdistance[18] 	2.6220610305153
scalar tree_4_3_u05_r10_network.client[18] 	downloads[18] 	11994
scalar tree_4_3_u05_r10_network.client[18] 	avg_time[18] 	0.004095711545
scalar tree_4_3_u05_r10_network.client[19] 	hdistance[19] 	2.6394664899346
scalar tree_4_3_u05_r10_network.client[19] 	downloads[19] 	12071
scalar tree_4_3_u05_r10_network.client[19] 	avg_time[19] 	0.004129232361
scalar tree_4_3_u05_r10_network.client[20] 	hdistance[20] 	2.6625572678051
scalar tree_4_3_u05_r10_network.client[20] 	downloads[20] 	12005
scalar tree_4_3_u05_r10_network.client[20] 	avg_time[20] 	0.004166261067
scalar tree_4_3_u05_r10_network.client[21] 	hdistance[21] 	2.7195971464541
scalar tree_4_3_u05_r10_network.client[21] 	downloads[21] 	11915
scalar tree_4_3_u05_r10_network.client[21] 	avg_time[21] 	0.004274608855
scalar tree_4_3_u05_r10_network.client[22] 	hdistance[22] 	2.7370714461893
scalar tree_4_3_u05_r10_network.client[22] 	downloads[22] 	12163
scalar tree_4_3_u05_r10_network.client[22] 	avg_time[22] 	0.004243992489
scalar tree_4_3_u05_r10_network.client[23] 	hdistance[23] 	2.6526587334609
scalar tree_4_3_u05_r10_network.client[23] 	downloads[23] 	12017
scalar tree_4_3_u05_r10_network.client[23] 	avg_time[23] 	0.004096859772
scalar tree_4_3_u05_r10_network.client[24] 	hdistance[24] 	2.6844138394357
scalar tree_4_3_u05_r10_network.client[24] 	downloads[24] 	11908
scalar tree_4_3_u05_r10_network.client[24] 	avg_time[24] 	0.004133688678
scalar tree_4_3_u05_r10_network.client[25] 	hdistance[25] 	2.727089288717
scalar tree_4_3_u05_r10_network.client[25] 	downloads[25] 	11894
scalar tree_4_3_u05_r10_network.client[25] 	avg_time[25] 	0.004222630293
scalar tree_4_3_u05_r10_network.client[26] 	hdistance[26] 	2.6947025264874
scalar tree_4_3_u05_r10_network.client[26] 	downloads[26] 	12270
scalar tree_4_3_u05_r10_network.client[26] 	avg_time[26] 	0.00417228705
scalar tree_4_3_u05_r10_network.client[27] 	hdistance[27] 	2.724673813679
scalar tree_4_3_u05_r10_network.client[27] 	downloads[27] 	12033
scalar tree_4_3_u05_r10_network.client[27] 	avg_time[27] 	0.004222884069
scalar tree_4_3_u05_r10_network.client[28] 	hdistance[28] 	2.7431598264932
scalar tree_4_3_u05_r10_network.client[28] 	downloads[28] 	11988
scalar tree_4_3_u05_r10_network.client[28] 	avg_time[28] 	0.004252657638
scalar tree_4_3_u05_r10_network.client[29] 	hdistance[29] 	2.7092678100264
scalar tree_4_3_u05_r10_network.client[29] 	downloads[29] 	12128
scalar tree_4_3_u05_r10_network.client[29] 	avg_time[29] 	0.004202998296
scalar tree_4_3_u05_r10_network.client[30] 	hdistance[30] 	2.6846929422548
scalar tree_4_3_u05_r10_network.client[30] 	downloads[30] 	12001
scalar tree_4_3_u05_r10_network.client[30] 	avg_time[30] 	0.004157317223
scalar tree_4_3_u05_r10_network.client[31] 	hdistance[31] 	2.7201207749727
scalar tree_4_3_u05_r10_network.client[31] 	downloads[31] 	11923
scalar tree_4_3_u05_r10_network.client[31] 	avg_time[31] 	0.00424434896
scalar tree_4_3_u05_r10_network.client[32] 	hdistance[32] 	2.7104129718774
scalar tree_4_3_u05_r10_network.client[32] 	downloads[32] 	11841
scalar tree_4_3_u05_r10_network.client[32] 	avg_time[32] 	0.004229707393
scalar tree_4_3_u05_r10_network.client[33] 	hdistance[33] 	2.65372786967
scalar tree_4_3_u05_r10_network.client[33] 	downloads[33] 	12031
scalar tree_4_3_u05_r10_network.client[33] 	avg_time[33] 	0.004118025429
scalar tree_4_3_u05_r10_network.client[34] 	hdistance[34] 	2.6528578487893
scalar tree_4_3_u05_r10_network.client[34] 	downloads[34] 	12142
scalar tree_4_3_u05_r10_network.client[34] 	avg_time[34] 	0.004130453254
scalar tree_4_3_u05_r10_network.client[35] 	hdistance[35] 	2.7363408521303
scalar tree_4_3_u05_r10_network.client[35] 	downloads[35] 	11970
scalar tree_4_3_u05_r10_network.client[35] 	avg_time[35] 	0.004278860856
scalar tree_4_3_u05_r10_network.client[36] 	hdistance[36] 	2.6440649589821
scalar tree_4_3_u05_r10_network.client[36] 	downloads[36] 	11946
scalar tree_4_3_u05_r10_network.client[36] 	avg_time[36] 	0.004102123281
scalar tree_4_3_u05_r10_network.client[37] 	hdistance[37] 	2.6744496330887
scalar tree_4_3_u05_r10_network.client[37] 	downloads[37] 	11992
scalar tree_4_3_u05_r10_network.client[37] 	avg_time[37] 	0.004141924979
scalar tree_4_3_u05_r10_network.client[38] 	hdistance[38] 	2.6826065411298
scalar tree_4_3_u05_r10_network.client[38] 	downloads[38] 	12108
scalar tree_4_3_u05_r10_network.client[38] 	avg_time[38] 	0.004184503096
scalar tree_4_3_u05_r10_network.client[39] 	hdistance[39] 	2.7148020509372
scalar tree_4_3_u05_r10_network.client[39] 	downloads[39] 	11897
scalar tree_4_3_u05_r10_network.client[39] 	avg_time[39] 	0.004231988285
