version 2
run General-116-20160902-14:22:04-7280
attr a 0.9
attr cd wfc0.01
attr configname General
attr cr lru
attr datetime 20160902-14:22:04
attr experiment General
attr fsize 1
attr inifile hw5115/scenario_Y/omnetp.ini
attr iterationvars "$name=tree_4_3, $un=05, $rep=17, $cd=wfc0.01, $cr=lru, $fsize=1, $a=0.9, $sl=nrr, $ttl=1000, $variance=0.05"
attr iterationvars2 "$name=tree_4_3, $un=05, $rep=17, $cd=wfc0.01, $cr=lru, $fsize=1, $a=0.9, $sl=nrr, $ttl=1000, $variance=0.05, $repetition=0"
attr measurement "$name=tree_4_3, $un=05, $rep=17, $cd=wfc0.01, $cr=lru, $fsize=1, $a=0.9, $sl=nrr, $ttl=1000, $variance=0.05"
attr name tree_4_3
attr network networks.${name}_u${un}_r${rep}_network
attr processid 7280
attr rep 17
attr repetition 0
attr replication #0
attr resultdir results
attr runnumber 116
attr seedset 17
attr sl nrr
attr ttl 1000
attr un 05
attr variance 0.05

scalar . 	a 	0.9
scalar . 	fsize 	1
scalar . 	rep 	17
scalar . 	ttl 	1000
scalar . 	un 	05
scalar . 	variance 	0.05
scalar tree_4_3_u05_r17_network.content_distribution 	repo-0 	0
scalar tree_4_3_u05_r17_network.content_distribution 	client-0 	13
scalar tree_4_3_u05_r17_network.content_distribution 	client-1 	14
scalar tree_4_3_u05_r17_network.content_distribution 	client-2 	15
scalar tree_4_3_u05_r17_network.content_distribution 	client-3 	16
scalar tree_4_3_u05_r17_network.content_distribution 	client-4 	17
scalar tree_4_3_u05_r17_network.content_distribution 	client-5 	18
scalar tree_4_3_u05_r17_network.content_distribution 	client-6 	19
scalar tree_4_3_u05_r17_network.content_distribution 	client-7 	20
scalar tree_4_3_u05_r17_network.content_distribution 	client-8 	21
scalar tree_4_3_u05_r17_network.content_distribution 	client-9 	22
scalar tree_4_3_u05_r17_network.content_distribution 	client-10 	23
scalar tree_4_3_u05_r17_network.content_distribution 	client-11 	24
scalar tree_4_3_u05_r17_network.content_distribution 	client-12 	25
scalar tree_4_3_u05_r17_network.content_distribution 	client-13 	26
scalar tree_4_3_u05_r17_network.content_distribution 	client-14 	27
scalar tree_4_3_u05_r17_network.content_distribution 	client-15 	28
scalar tree_4_3_u05_r17_network.content_distribution 	client-16 	29
scalar tree_4_3_u05_r17_network.content_distribution 	client-17 	30
scalar tree_4_3_u05_r17_network.content_distribution 	client-18 	31
scalar tree_4_3_u05_r17_network.content_distribution 	client-19 	32
scalar tree_4_3_u05_r17_network.content_distribution 	client-20 	33
scalar tree_4_3_u05_r17_network.content_distribution 	client-21 	34
scalar tree_4_3_u05_r17_network.content_distribution 	client-22 	35
scalar tree_4_3_u05_r17_network.content_distribution 	client-23 	36
scalar tree_4_3_u05_r17_network.content_distribution 	client-24 	37
scalar tree_4_3_u05_r17_network.content_distribution 	client-25 	38
scalar tree_4_3_u05_r17_network.content_distribution 	client-26 	39
scalar tree_4_3_u05_r17_network.content_distribution 	repo-0_card 	100000
scalar tree_4_3_u05_r17_network.content_distribution 	repo-0_price 	0
scalar tree_4_3_u05_r17_network.statistics 	stabilization_time 	1165.4
scalar tree_4_3_u05_r17_network.statistics 	p_hit 	0.22648004985746
scalar tree_4_3_u05_r17_network.statistics 	interests 	25083.7
scalar tree_4_3_u05_r17_network.statistics 	data 	16982.675
scalar tree_4_3_u05_r17_network.statistics 	hdistance 	2.6930769230001
scalar tree_4_3_u05_r17_network.statistics 	avg_time 	0.004192974013
scalar tree_4_3_u05_r17_network.statistics 	downloads 	324022
scalar tree_4_3_u05_r17_network.statistics 	total_cost 	0
scalar tree_4_3_u05_r17_network.statistics 	total_replicas 	100000
scalar tree_4_3_u05_r17_network.statistics 	inner_hit 	0.40338310361642
scalar tree_4_3_u05_r17_network.node[0].core_layer 	interests[0] 	195782
scalar tree_4_3_u05_r17_network.node[0].core_layer 	repo_load[0] 	193317
scalar tree_4_3_u05_r17_network.node[0].core_layer 	data[0] 	0
scalar tree_4_3_u05_r17_network.node[0].core_layer 	repo_int[0] 	193317
scalar tree_4_3_u05_r17_network.node[0].content_store 	p_hit[0] 	0.01259053436986
scalar tree_4_3_u05_r17_network.node[0].content_store 	hits[0] 	2465
scalar tree_4_3_u05_r17_network.node[0].content_store 	misses[0] 	193317
scalar tree_4_3_u05_r17_network.node[0].content_store 	decision_yes[0] 	2906
scalar tree_4_3_u05_r17_network.node[0].content_store 	decision_no[0] 	190411
scalar tree_4_3_u05_r17_network.node[0].content_store 	decision_ratio[0] 	0.015032304453307
scalar tree_4_3_u05_r17_network.node[1].core_layer 	interests[1] 	99262
scalar tree_4_3_u05_r17_network.node[1].core_layer 	data[1] 	97584
scalar tree_4_3_u05_r17_network.node[1].content_store 	p_hit[1] 	0.01689468275876
scalar tree_4_3_u05_r17_network.node[1].content_store 	hits[1] 	1677
scalar tree_4_3_u05_r17_network.node[1].content_store 	misses[1] 	97585
scalar tree_4_3_u05_r17_network.node[1].content_store 	decision_yes[1] 	1130
scalar tree_4_3_u05_r17_network.node[1].content_store 	decision_no[1] 	96454
scalar tree_4_3_u05_r17_network.node[1].content_store 	decision_ratio[1] 	0.011579767174947
scalar tree_4_3_u05_r17_network.node[2].core_layer 	interests[2] 	72378
scalar tree_4_3_u05_r17_network.node[2].core_layer 	data[2] 	71073
scalar tree_4_3_u05_r17_network.node[2].content_store 	p_hit[2] 	0.01801652435823
scalar tree_4_3_u05_r17_network.node[2].content_store 	hits[2] 	1304
scalar tree_4_3_u05_r17_network.node[2].content_store 	misses[2] 	71074
scalar tree_4_3_u05_r17_network.node[2].content_store 	decision_yes[2] 	807
scalar tree_4_3_u05_r17_network.node[2].content_store 	decision_no[2] 	70266
scalar tree_4_3_u05_r17_network.node[2].content_store 	decision_ratio[2] 	0.011354522814571
scalar tree_4_3_u05_r17_network.node[3].core_layer 	interests[3] 	41808
scalar tree_4_3_u05_r17_network.node[3].core_layer 	data[3] 	39696
scalar tree_4_3_u05_r17_network.node[3].content_store 	p_hit[3] 	0.05049272866437
scalar tree_4_3_u05_r17_network.node[3].content_store 	hits[3] 	2111
scalar tree_4_3_u05_r17_network.node[3].content_store 	misses[3] 	39697
scalar tree_4_3_u05_r17_network.node[3].content_store 	decision_yes[3] 	541
scalar tree_4_3_u05_r17_network.node[3].content_store 	decision_no[3] 	39155
scalar tree_4_3_u05_r17_network.node[3].content_store 	decision_ratio[3] 	0.013628577186618
scalar tree_4_3_u05_r17_network.node[4].core_layer 	interests[4] 	43627
scalar tree_4_3_u05_r17_network.node[4].core_layer 	data[4] 	41389
scalar tree_4_3_u05_r17_network.node[4].content_store 	p_hit[4] 	0.051252664634286
scalar tree_4_3_u05_r17_network.node[4].content_store 	hits[4] 	2236
scalar tree_4_3_u05_r17_network.node[4].content_store 	misses[4] 	41391
scalar tree_4_3_u05_r17_network.node[4].content_store 	decision_yes[4] 	591
scalar tree_4_3_u05_r17_network.node[4].content_store 	decision_no[4] 	40798
scalar tree_4_3_u05_r17_network.node[4].content_store 	decision_ratio[4] 	0.014279156297567
scalar tree_4_3_u05_r17_network.node[5].core_layer 	interests[5] 	27909
scalar tree_4_3_u05_r17_network.node[5].core_layer 	data[5] 	25229
scalar tree_4_3_u05_r17_network.node[5].content_store 	p_hit[5] 	0.096026371421405
scalar tree_4_3_u05_r17_network.node[5].content_store 	hits[5] 	2680
scalar tree_4_3_u05_r17_network.node[5].content_store 	misses[5] 	25229
scalar tree_4_3_u05_r17_network.node[5].content_store 	decision_yes[5] 	360
scalar tree_4_3_u05_r17_network.node[5].content_store 	decision_no[5] 	24869
scalar tree_4_3_u05_r17_network.node[5].content_store 	decision_ratio[5] 	0.014269293273614
scalar tree_4_3_u05_r17_network.node[6].core_layer 	interests[6] 	12781
scalar tree_4_3_u05_r17_network.node[6].core_layer 	data[6] 	9754
scalar tree_4_3_u05_r17_network.node[6].content_store 	p_hit[6] 	0.23683592833112
scalar tree_4_3_u05_r17_network.node[6].content_store 	hits[6] 	3027
scalar tree_4_3_u05_r17_network.node[6].content_store 	misses[6] 	9754
scalar tree_4_3_u05_r17_network.node[6].content_store 	decision_yes[6] 	237
scalar tree_4_3_u05_r17_network.node[6].content_store 	decision_no[6] 	9517
scalar tree_4_3_u05_r17_network.node[6].content_store 	decision_ratio[6] 	0.024297724010662
scalar tree_4_3_u05_r17_network.node[7].core_layer 	interests[7] 	36254
scalar tree_4_3_u05_r17_network.node[7].core_layer 	data[7] 	33931
scalar tree_4_3_u05_r17_network.node[7].content_store 	p_hit[7] 	0.064048105036686
scalar tree_4_3_u05_r17_network.node[7].content_store 	hits[7] 	2322
scalar tree_4_3_u05_r17_network.node[7].content_store 	misses[7] 	33932
scalar tree_4_3_u05_r17_network.node[7].content_store 	decision_yes[7] 	461
scalar tree_4_3_u05_r17_network.node[7].content_store 	decision_no[7] 	33470
scalar tree_4_3_u05_r17_network.node[7].content_store 	decision_ratio[7] 	0.013586395921134
scalar tree_4_3_u05_r17_network.node[8].core_layer 	interests[8] 	28186
scalar tree_4_3_u05_r17_network.node[8].core_layer 	data[8] 	25896
scalar tree_4_3_u05_r17_network.node[8].content_store 	p_hit[8] 	0.08124600865678
scalar tree_4_3_u05_r17_network.node[8].content_store 	hits[8] 	2290
scalar tree_4_3_u05_r17_network.node[8].content_store 	misses[8] 	25896
scalar tree_4_3_u05_r17_network.node[8].content_store 	decision_yes[8] 	383
scalar tree_4_3_u05_r17_network.node[8].content_store 	decision_no[8] 	25513
scalar tree_4_3_u05_r17_network.node[8].content_store 	decision_ratio[8] 	0.014789928946555
scalar tree_4_3_u05_r17_network.node[9].core_layer 	interests[9] 	19462
scalar tree_4_3_u05_r17_network.node[9].core_layer 	data[9] 	17445
scalar tree_4_3_u05_r17_network.node[9].content_store 	p_hit[9] 	0.10358647621005
scalar tree_4_3_u05_r17_network.node[9].content_store 	hits[9] 	2016
scalar tree_4_3_u05_r17_network.node[9].content_store 	misses[9] 	17446
scalar tree_4_3_u05_r17_network.node[9].content_store 	decision_yes[9] 	256
scalar tree_4_3_u05_r17_network.node[9].content_store 	decision_no[9] 	17189
scalar tree_4_3_u05_r17_network.node[9].content_store 	decision_ratio[9] 	0.014674691888793
scalar tree_4_3_u05_r17_network.node[10].core_layer 	interests[10] 	36821
scalar tree_4_3_u05_r17_network.node[10].core_layer 	data[10] 	33878
scalar tree_4_3_u05_r17_network.node[10].content_store 	p_hit[10] 	0.079900057032672
scalar tree_4_3_u05_r17_network.node[10].content_store 	hits[10] 	2942
scalar tree_4_3_u05_r17_network.node[10].content_store 	misses[10] 	33879
scalar tree_4_3_u05_r17_network.node[10].content_store 	decision_yes[10] 	536
scalar tree_4_3_u05_r17_network.node[10].content_store 	decision_no[10] 	33342
scalar tree_4_3_u05_r17_network.node[10].content_store 	decision_ratio[10] 	0.015821477064762
scalar tree_4_3_u05_r17_network.node[11].core_layer 	interests[11] 	36691
scalar tree_4_3_u05_r17_network.node[11].core_layer 	data[11] 	34225
scalar tree_4_3_u05_r17_network.node[11].content_store 	p_hit[11] 	0.067100923932299
scalar tree_4_3_u05_r17_network.node[11].content_store 	hits[11] 	2462
scalar tree_4_3_u05_r17_network.node[11].content_store 	misses[11] 	34229
scalar tree_4_3_u05_r17_network.node[11].content_store 	decision_yes[11] 	523
scalar tree_4_3_u05_r17_network.node[11].content_store 	decision_no[11] 	33702
scalar tree_4_3_u05_r17_network.node[11].content_store 	decision_ratio[11] 	0.015281227173119
scalar tree_4_3_u05_r17_network.node[12].core_layer 	interests[12] 	11200
scalar tree_4_3_u05_r17_network.node[12].core_layer 	data[12] 	8854
scalar tree_4_3_u05_r17_network.node[12].content_store 	p_hit[12] 	0.20946428571429
scalar tree_4_3_u05_r17_network.node[12].content_store 	hits[12] 	2346
scalar tree_4_3_u05_r17_network.node[12].content_store 	misses[12] 	8854
scalar tree_4_3_u05_r17_network.node[12].content_store 	decision_yes[12] 	189
scalar tree_4_3_u05_r17_network.node[12].content_store 	decision_no[12] 	8665
scalar tree_4_3_u05_r17_network.node[12].content_store 	decision_ratio[12] 	0.021346284165349
scalar tree_4_3_u05_r17_network.node[13].core_layer 	interests[13] 	12411
scalar tree_4_3_u05_r17_network.node[13].core_layer 	data[13] 	8791
scalar tree_4_3_u05_r17_network.node[13].content_store 	p_hit[13] 	0.29159616469261
scalar tree_4_3_u05_r17_network.node[13].content_store 	hits[13] 	3619
scalar tree_4_3_u05_r17_network.node[13].content_store 	misses[13] 	8792
scalar tree_4_3_u05_r17_network.node[13].content_store 	decision_yes[13] 	101
scalar tree_4_3_u05_r17_network.node[13].content_store 	decision_no[13] 	8690
scalar tree_4_3_u05_r17_network.node[13].content_store 	decision_ratio[13] 	0.011489022864293
scalar tree_4_3_u05_r17_network.node[14].core_layer 	interests[14] 	13148
scalar tree_4_3_u05_r17_network.node[14].core_layer 	data[14] 	9084
scalar tree_4_3_u05_r17_network.node[14].content_store 	p_hit[14] 	0.30902038332826
scalar tree_4_3_u05_r17_network.node[14].content_store 	hits[14] 	4063
scalar tree_4_3_u05_r17_network.node[14].content_store 	misses[14] 	9085
scalar tree_4_3_u05_r17_network.node[14].content_store 	decision_yes[14] 	128
scalar tree_4_3_u05_r17_network.node[14].content_store 	decision_no[14] 	8956
scalar tree_4_3_u05_r17_network.node[14].content_store 	decision_ratio[14] 	0.014090708938793
scalar tree_4_3_u05_r17_network.node[15].core_layer 	interests[15] 	12274
scalar tree_4_3_u05_r17_network.node[15].core_layer 	data[15] 	8663
scalar tree_4_3_u05_r17_network.node[15].content_store 	p_hit[15] 	0.29419912009125
scalar tree_4_3_u05_r17_network.node[15].content_store 	hits[15] 	3611
scalar tree_4_3_u05_r17_network.node[15].content_store 	misses[15] 	8663
scalar tree_4_3_u05_r17_network.node[15].content_store 	decision_yes[15] 	116
scalar tree_4_3_u05_r17_network.node[15].content_store 	decision_no[15] 	8547
scalar tree_4_3_u05_r17_network.node[15].content_store 	decision_ratio[15] 	0.01339028050329
scalar tree_4_3_u05_r17_network.node[16].core_layer 	interests[16] 	12985
scalar tree_4_3_u05_r17_network.node[16].core_layer 	data[16] 	8982
scalar tree_4_3_u05_r17_network.node[16].content_store 	p_hit[16] 	0.3082787832114
scalar tree_4_3_u05_r17_network.node[16].content_store 	hits[16] 	4003
scalar tree_4_3_u05_r17_network.node[16].content_store 	misses[16] 	8982
scalar tree_4_3_u05_r17_network.node[16].content_store 	decision_yes[16] 	168
scalar tree_4_3_u05_r17_network.node[16].content_store 	decision_no[16] 	8814
scalar tree_4_3_u05_r17_network.node[16].content_store 	decision_ratio[16] 	0.018704074816299
scalar tree_4_3_u05_r17_network.node[17].core_layer 	interests[17] 	12339
scalar tree_4_3_u05_r17_network.node[17].core_layer 	data[17] 	8664
scalar tree_4_3_u05_r17_network.node[17].content_store 	p_hit[17] 	0.29783612934598
scalar tree_4_3_u05_r17_network.node[17].content_store 	hits[17] 	3675
scalar tree_4_3_u05_r17_network.node[17].content_store 	misses[17] 	8664
scalar tree_4_3_u05_r17_network.node[17].content_store 	decision_yes[17] 	110
scalar tree_4_3_u05_r17_network.node[17].content_store 	decision_no[17] 	8554
scalar tree_4_3_u05_r17_network.node[17].content_store 	decision_ratio[17] 	0.01269621421976
scalar tree_4_3_u05_r17_network.node[18].core_layer 	interests[18] 	12482
scalar tree_4_3_u05_r17_network.node[18].core_layer 	data[18] 	8887
scalar tree_4_3_u05_r17_network.node[18].content_store 	p_hit[18] 	0.28801474122737
scalar tree_4_3_u05_r17_network.node[18].content_store 	hits[18] 	3595
scalar tree_4_3_u05_r17_network.node[18].content_store 	misses[18] 	8887
scalar tree_4_3_u05_r17_network.node[18].content_store 	decision_yes[18] 	98
scalar tree_4_3_u05_r17_network.node[18].content_store 	decision_no[18] 	8789
scalar tree_4_3_u05_r17_network.node[18].content_store 	decision_ratio[18] 	0.011027343310453
scalar tree_4_3_u05_r17_network.node[19].core_layer 	interests[19] 	12834
scalar tree_4_3_u05_r17_network.node[19].core_layer 	data[19] 	8900
scalar tree_4_3_u05_r17_network.node[19].content_store 	p_hit[19] 	0.30652953093346
scalar tree_4_3_u05_r17_network.node[19].content_store 	hits[19] 	3934
scalar tree_4_3_u05_r17_network.node[19].content_store 	misses[19] 	8900
scalar tree_4_3_u05_r17_network.node[19].content_store 	decision_yes[19] 	135
scalar tree_4_3_u05_r17_network.node[19].content_store 	decision_no[19] 	8765
scalar tree_4_3_u05_r17_network.node[19].content_store 	decision_ratio[19] 	0.015168539325843
scalar tree_4_3_u05_r17_network.node[20].core_layer 	interests[20] 	12781
scalar tree_4_3_u05_r17_network.node[20].core_layer 	data[20] 	8755
scalar tree_4_3_u05_r17_network.node[20].content_store 	p_hit[20] 	0.31499882638291
scalar tree_4_3_u05_r17_network.node[20].content_store 	hits[20] 	4026
scalar tree_4_3_u05_r17_network.node[20].content_store 	misses[20] 	8755
scalar tree_4_3_u05_r17_network.node[20].content_store 	decision_yes[20] 	121
scalar tree_4_3_u05_r17_network.node[20].content_store 	decision_no[20] 	8634
scalar tree_4_3_u05_r17_network.node[20].content_store 	decision_ratio[20] 	0.013820673900628
scalar tree_4_3_u05_r17_network.node[21].core_layer 	interests[21] 	12298
scalar tree_4_3_u05_r17_network.node[21].core_layer 	data[21] 	8904
scalar tree_4_3_u05_r17_network.node[21].content_store 	p_hit[21] 	0.27597983411937
scalar tree_4_3_u05_r17_network.node[21].content_store 	hits[21] 	3394
scalar tree_4_3_u05_r17_network.node[21].content_store 	misses[21] 	8904
scalar tree_4_3_u05_r17_network.node[21].content_store 	decision_yes[21] 	138
scalar tree_4_3_u05_r17_network.node[21].content_store 	decision_no[21] 	8766
scalar tree_4_3_u05_r17_network.node[21].content_store 	decision_ratio[21] 	0.015498652291105
scalar tree_4_3_u05_r17_network.node[22].core_layer 	interests[22] 	12616
scalar tree_4_3_u05_r17_network.node[22].core_layer 	data[22] 	9078
scalar tree_4_3_u05_r17_network.node[22].content_store 	p_hit[22] 	0.28051680405834
scalar tree_4_3_u05_r17_network.node[22].content_store 	hits[22] 	3539
scalar tree_4_3_u05_r17_network.node[22].content_store 	misses[22] 	9077
scalar tree_4_3_u05_r17_network.node[22].content_store 	decision_yes[22] 	129
scalar tree_4_3_u05_r17_network.node[22].content_store 	decision_no[22] 	8949
scalar tree_4_3_u05_r17_network.node[22].content_store 	decision_ratio[22] 	0.014210178453404
scalar tree_4_3_u05_r17_network.node[23].core_layer 	interests[23] 	13232
scalar tree_4_3_u05_r17_network.node[23].core_layer 	data[23] 	9071
scalar tree_4_3_u05_r17_network.node[23].content_store 	p_hit[23] 	0.31446493349456
scalar tree_4_3_u05_r17_network.node[23].content_store 	hits[23] 	4161
scalar tree_4_3_u05_r17_network.node[23].content_store 	misses[23] 	9071
scalar tree_4_3_u05_r17_network.node[23].content_store 	decision_yes[23] 	156
scalar tree_4_3_u05_r17_network.node[23].content_store 	decision_no[23] 	8915
scalar tree_4_3_u05_r17_network.node[23].content_store 	decision_ratio[23] 	0.017197662881711
scalar tree_4_3_u05_r17_network.node[24].core_layer 	interests[24] 	12522
scalar tree_4_3_u05_r17_network.node[24].core_layer 	data[24] 	9014
scalar tree_4_3_u05_r17_network.node[24].content_store 	p_hit[24] 	0.28014694138317
scalar tree_4_3_u05_r17_network.node[24].content_store 	hits[24] 	3508
scalar tree_4_3_u05_r17_network.node[24].content_store 	misses[24] 	9014
scalar tree_4_3_u05_r17_network.node[24].content_store 	decision_yes[24] 	106
scalar tree_4_3_u05_r17_network.node[24].content_store 	decision_no[24] 	8908
scalar tree_4_3_u05_r17_network.node[24].content_store 	decision_ratio[24] 	0.011759485245174
scalar tree_4_3_u05_r17_network.node[25].core_layer 	interests[25] 	12371
scalar tree_4_3_u05_r17_network.node[25].core_layer 	data[25] 	8847
scalar tree_4_3_u05_r17_network.node[25].content_store 	p_hit[25] 	0.28485975264732
scalar tree_4_3_u05_r17_network.node[25].content_store 	hits[25] 	3524
scalar tree_4_3_u05_r17_network.node[25].content_store 	misses[25] 	8847
scalar tree_4_3_u05_r17_network.node[25].content_store 	decision_yes[25] 	101
scalar tree_4_3_u05_r17_network.node[25].content_store 	decision_no[25] 	8746
scalar tree_4_3_u05_r17_network.node[25].content_store 	decision_ratio[25] 	0.011416299310501
scalar tree_4_3_u05_r17_network.node[26].core_layer 	interests[26] 	12322
scalar tree_4_3_u05_r17_network.node[26].core_layer 	data[26] 	8840
scalar tree_4_3_u05_r17_network.node[26].content_store 	p_hit[26] 	0.28258399610453
scalar tree_4_3_u05_r17_network.node[26].content_store 	hits[26] 	3482
scalar tree_4_3_u05_r17_network.node[26].content_store 	misses[26] 	8840
scalar tree_4_3_u05_r17_network.node[26].content_store 	decision_yes[26] 	119
scalar tree_4_3_u05_r17_network.node[26].content_store 	decision_no[26] 	8721
scalar tree_4_3_u05_r17_network.node[26].content_store 	decision_ratio[26] 	0.013461538461538
scalar tree_4_3_u05_r17_network.node[27].core_layer 	interests[27] 	12457
scalar tree_4_3_u05_r17_network.node[27].core_layer 	data[27] 	8824
scalar tree_4_3_u05_r17_network.node[27].content_store 	p_hit[27] 	0.2916432527896
scalar tree_4_3_u05_r17_network.node[27].content_store 	hits[27] 	3633
scalar tree_4_3_u05_r17_network.node[27].content_store 	misses[27] 	8824
scalar tree_4_3_u05_r17_network.node[27].content_store 	decision_yes[27] 	112
scalar tree_4_3_u05_r17_network.node[27].content_store 	decision_no[27] 	8712
scalar tree_4_3_u05_r17_network.node[27].content_store 	decision_ratio[27] 	0.012692656391659
scalar tree_4_3_u05_r17_network.node[28].core_layer 	interests[28] 	13023
scalar tree_4_3_u05_r17_network.node[28].core_layer 	data[28] 	8979
scalar tree_4_3_u05_r17_network.node[28].content_store 	p_hit[28] 	0.3104507409967
scalar tree_4_3_u05_r17_network.node[28].content_store 	hits[28] 	4043
scalar tree_4_3_u05_r17_network.node[28].content_store 	misses[28] 	8980
scalar tree_4_3_u05_r17_network.node[28].content_store 	decision_yes[28] 	127
scalar tree_4_3_u05_r17_network.node[28].content_store 	decision_no[28] 	8852
scalar tree_4_3_u05_r17_network.node[28].content_store 	decision_ratio[28] 	0.01414411404388
scalar tree_4_3_u05_r17_network.node[29].core_layer 	interests[29] 	12482
scalar tree_4_3_u05_r17_network.node[29].core_layer 	data[29] 	8978
scalar tree_4_3_u05_r17_network.node[29].content_store 	p_hit[29] 	0.28072424290979
scalar tree_4_3_u05_r17_network.node[29].content_store 	hits[29] 	3504
scalar tree_4_3_u05_r17_network.node[29].content_store 	misses[29] 	8978
scalar tree_4_3_u05_r17_network.node[29].content_store 	decision_yes[29] 	130
scalar tree_4_3_u05_r17_network.node[29].content_store 	decision_no[29] 	8848
scalar tree_4_3_u05_r17_network.node[29].content_store 	decision_ratio[29] 	0.01447983960793
scalar tree_4_3_u05_r17_network.node[30].core_layer 	interests[30] 	12357
scalar tree_4_3_u05_r17_network.node[30].core_layer 	data[30] 	8915
scalar tree_4_3_u05_r17_network.node[30].content_store 	p_hit[30] 	0.27854657279275
scalar tree_4_3_u05_r17_network.node[30].content_store 	hits[30] 	3442
scalar tree_4_3_u05_r17_network.node[30].content_store 	misses[30] 	8915
scalar tree_4_3_u05_r17_network.node[30].content_store 	decision_yes[30] 	119
scalar tree_4_3_u05_r17_network.node[30].content_store 	decision_no[30] 	8796
scalar tree_4_3_u05_r17_network.node[30].content_store 	decision_ratio[30] 	0.013348289399888
scalar tree_4_3_u05_r17_network.node[31].core_layer 	interests[31] 	12650
scalar tree_4_3_u05_r17_network.node[31].core_layer 	data[31] 	9017
scalar tree_4_3_u05_r17_network.node[31].content_store 	p_hit[31] 	0.28719367588933
scalar tree_4_3_u05_r17_network.node[31].content_store 	hits[31] 	3633
scalar tree_4_3_u05_r17_network.node[31].content_store 	misses[31] 	9017
scalar tree_4_3_u05_r17_network.node[31].content_store 	decision_yes[31] 	127
scalar tree_4_3_u05_r17_network.node[31].content_store 	decision_no[31] 	8890
scalar tree_4_3_u05_r17_network.node[31].content_store 	decision_ratio[31] 	0.014084507042254
scalar tree_4_3_u05_r17_network.node[32].core_layer 	interests[32] 	13298
scalar tree_4_3_u05_r17_network.node[32].core_layer 	data[32] 	9011
scalar tree_4_3_u05_r17_network.node[32].content_store 	p_hit[32] 	0.32230410588058
scalar tree_4_3_u05_r17_network.node[32].content_store 	hits[32] 	4286
scalar tree_4_3_u05_r17_network.node[32].content_store 	misses[32] 	9012
scalar tree_4_3_u05_r17_network.node[32].content_store 	decision_yes[32] 	119
scalar tree_4_3_u05_r17_network.node[32].content_store 	decision_no[32] 	8892
scalar tree_4_3_u05_r17_network.node[32].content_store 	decision_ratio[32] 	0.013206081455998
scalar tree_4_3_u05_r17_network.node[33].core_layer 	interests[33] 	12773
scalar tree_4_3_u05_r17_network.node[33].core_layer 	data[33] 	8781
scalar tree_4_3_u05_r17_network.node[33].content_store 	p_hit[33] 	0.31245596179441
scalar tree_4_3_u05_r17_network.node[33].content_store 	hits[33] 	3991
scalar tree_4_3_u05_r17_network.node[33].content_store 	misses[33] 	8782
scalar tree_4_3_u05_r17_network.node[33].content_store 	decision_yes[33] 	121
scalar tree_4_3_u05_r17_network.node[33].content_store 	decision_no[33] 	8660
scalar tree_4_3_u05_r17_network.node[33].content_store 	decision_ratio[33] 	0.013779751736704
scalar tree_4_3_u05_r17_network.node[34].core_layer 	interests[34] 	12384
scalar tree_4_3_u05_r17_network.node[34].core_layer 	data[34] 	8803
scalar tree_4_3_u05_r17_network.node[34].content_store 	p_hit[34] 	0.2890826873385
scalar tree_4_3_u05_r17_network.node[34].content_store 	hits[34] 	3580
scalar tree_4_3_u05_r17_network.node[34].content_store 	misses[34] 	8804
scalar tree_4_3_u05_r17_network.node[34].content_store 	decision_yes[34] 	115
scalar tree_4_3_u05_r17_network.node[34].content_store 	decision_no[34] 	8688
scalar tree_4_3_u05_r17_network.node[34].content_store 	decision_ratio[34] 	0.013063728274452
scalar tree_4_3_u05_r17_network.node[35].core_layer 	interests[35] 	12627
scalar tree_4_3_u05_r17_network.node[35].core_layer 	data[35] 	8889
scalar tree_4_3_u05_r17_network.node[35].content_store 	p_hit[35] 	0.29595311633801
scalar tree_4_3_u05_r17_network.node[35].content_store 	hits[35] 	3737
scalar tree_4_3_u05_r17_network.node[35].content_store 	misses[35] 	8890
scalar tree_4_3_u05_r17_network.node[35].content_store 	decision_yes[35] 	105
scalar tree_4_3_u05_r17_network.node[35].content_store 	decision_no[35] 	8784
scalar tree_4_3_u05_r17_network.node[35].content_store 	decision_ratio[35] 	0.011812352345596
scalar tree_4_3_u05_r17_network.node[36].core_layer 	interests[36] 	12460
scalar tree_4_3_u05_r17_network.node[36].core_layer 	data[36] 	8868
scalar tree_4_3_u05_r17_network.node[36].content_store 	p_hit[36] 	0.28828250401284
scalar tree_4_3_u05_r17_network.node[36].content_store 	hits[36] 	3592
scalar tree_4_3_u05_r17_network.node[36].content_store 	misses[36] 	8868
scalar tree_4_3_u05_r17_network.node[36].content_store 	decision_yes[36] 	114
scalar tree_4_3_u05_r17_network.node[36].content_store 	decision_no[36] 	8754
scalar tree_4_3_u05_r17_network.node[36].content_store 	decision_ratio[36] 	0.012855209742896
scalar tree_4_3_u05_r17_network.node[37].core_layer 	interests[37] 	13059
scalar tree_4_3_u05_r17_network.node[37].core_layer 	data[37] 	9160
scalar tree_4_3_u05_r17_network.node[37].content_store 	p_hit[37] 	0.29856803736886
scalar tree_4_3_u05_r17_network.node[37].content_store 	hits[37] 	3899
scalar tree_4_3_u05_r17_network.node[37].content_store 	misses[37] 	9160
scalar tree_4_3_u05_r17_network.node[37].content_store 	decision_yes[37] 	154
scalar tree_4_3_u05_r17_network.node[37].content_store 	decision_no[37] 	9006
scalar tree_4_3_u05_r17_network.node[37].content_store 	decision_ratio[37] 	0.016812227074236
scalar tree_4_3_u05_r17_network.node[38].core_layer 	interests[38] 	12910
scalar tree_4_3_u05_r17_network.node[38].core_layer 	data[38] 	8983
scalar tree_4_3_u05_r17_network.node[38].content_store 	p_hit[38] 	0.30410534469404
scalar tree_4_3_u05_r17_network.node[38].content_store 	hits[38] 	3926
scalar tree_4_3_u05_r17_network.node[38].content_store 	misses[38] 	8984
scalar tree_4_3_u05_r17_network.node[38].content_store 	decision_yes[38] 	155
scalar tree_4_3_u05_r17_network.node[38].content_store 	decision_no[38] 	8828
scalar tree_4_3_u05_r17_network.node[38].content_store 	decision_ratio[38] 	0.017254814649894
scalar tree_4_3_u05_r17_network.node[39].core_layer 	interests[39] 	12092
scalar tree_4_3_u05_r17_network.node[39].core_layer 	data[39] 	8665
scalar tree_4_3_u05_r17_network.node[39].content_store 	p_hit[39] 	0.28341051935164
scalar tree_4_3_u05_r17_network.node[39].content_store 	hits[39] 	3427
scalar tree_4_3_u05_r17_network.node[39].content_store 	misses[39] 	8665
scalar tree_4_3_u05_r17_network.node[39].content_store 	decision_yes[39] 	107
scalar tree_4_3_u05_r17_network.node[39].content_store 	decision_no[39] 	8558
scalar tree_4_3_u05_r17_network.node[39].content_store 	decision_ratio[39] 	0.012348528563185
scalar tree_4_3_u05_r17_network.client[13] 	hdistance[13] 	2.7181994436483
scalar tree_4_3_u05_r17_network.client[13] 	downloads[13] 	11863
scalar tree_4_3_u05_r17_network.client[13] 	avg_time[13] 	0.004247536269
scalar tree_4_3_u05_r17_network.client[14] 	hdistance[14] 	2.691639791615
scalar tree_4_3_u05_r17_network.client[14] 	downloads[14] 	12093
scalar tree_4_3_u05_r17_network.client[14] 	avg_time[14] 	0.004183933033
scalar tree_4_3_u05_r17_network.client[15] 	hdistance[15] 	2.6942696820269
scalar tree_4_3_u05_r17_network.client[15] 	downloads[15] 	11762
scalar tree_4_3_u05_r17_network.client[15] 	avg_time[15] 	0.004212589606
scalar tree_4_3_u05_r17_network.client[16] 	hdistance[16] 	2.6799465463961
scalar tree_4_3_u05_r17_network.client[16] 	downloads[16] 	11973
scalar tree_4_3_u05_r17_network.client[16] 	avg_time[16] 	0.004165034975
scalar tree_4_3_u05_r17_network.client[17] 	hdistance[17] 	2.6816071579303
scalar tree_4_3_u05_r17_network.client[17] 	downloads[17] 	11847
scalar tree_4_3_u05_r17_network.client[17] 	avg_time[17] 	0.00418384103
scalar tree_4_3_u05_r17_network.client[18] 	hdistance[18] 	2.7006252605252
scalar tree_4_3_u05_r17_network.client[18] 	downloads[18] 	11995
scalar tree_4_3_u05_r17_network.client[18] 	avg_time[18] 	0.004221756062
scalar tree_4_3_u05_r17_network.client[19] 	hdistance[19] 	2.6394472361809
scalar tree_4_3_u05_r17_network.client[19] 	downloads[19] 	11940
scalar tree_4_3_u05_r17_network.client[19] 	avg_time[19] 	0.004126295167
scalar tree_4_3_u05_r17_network.client[20] 	hdistance[20] 	2.6253911866701
scalar tree_4_3_u05_r17_network.client[20] 	downloads[20] 	11823
scalar tree_4_3_u05_r17_network.client[20] 	avg_time[20] 	0.004101832438
scalar tree_4_3_u05_r17_network.client[21] 	hdistance[21] 	2.6958874458875
scalar tree_4_3_u05_r17_network.client[21] 	downloads[21] 	12012
scalar tree_4_3_u05_r17_network.client[21] 	avg_time[21] 	0.004246417201
scalar tree_4_3_u05_r17_network.client[22] 	hdistance[22] 	2.7435539497454
scalar tree_4_3_u05_r17_network.client[22] 	downloads[22] 	12178
scalar tree_4_3_u05_r17_network.client[22] 	avg_time[22] 	0.004248477819
scalar tree_4_3_u05_r17_network.client[23] 	hdistance[23] 	2.6909959634237
scalar tree_4_3_u05_r17_network.client[23] 	downloads[23] 	12139
scalar tree_4_3_u05_r17_network.client[23] 	avg_time[23] 	0.004148114617
scalar tree_4_3_u05_r17_network.client[24] 	hdistance[24] 	2.7435748632068
scalar tree_4_3_u05_r17_network.client[24] 	downloads[24] 	12062
scalar tree_4_3_u05_r17_network.client[24] 	avg_time[24] 	0.004254017862
scalar tree_4_3_u05_r17_network.client[25] 	hdistance[25] 	2.7293693391479
scalar tree_4_3_u05_r17_network.client[25] 	downloads[25] 	11924
scalar tree_4_3_u05_r17_network.client[25] 	avg_time[25] 	0.004232804776
scalar tree_4_3_u05_r17_network.client[26] 	hdistance[26] 	2.7406879194631
scalar tree_4_3_u05_r17_network.client[26] 	downloads[26] 	11920
scalar tree_4_3_u05_r17_network.client[26] 	avg_time[26] 	0.004245970167
scalar tree_4_3_u05_r17_network.client[27] 	hdistance[27] 	2.7197335553705
scalar tree_4_3_u05_r17_network.client[27] 	downloads[27] 	12010
scalar tree_4_3_u05_r17_network.client[27] 	avg_time[27] 	0.004211154407
scalar tree_4_3_u05_r17_network.client[28] 	hdistance[28] 	2.6822576646558
scalar tree_4_3_u05_r17_network.client[28] 	downloads[28] 	12101
scalar tree_4_3_u05_r17_network.client[28] 	avg_time[28] 	0.004134035485
scalar tree_4_3_u05_r17_network.client[29] 	hdistance[29] 	2.7370373423461
scalar tree_4_3_u05_r17_network.client[29] 	downloads[29] 	12131
scalar tree_4_3_u05_r17_network.client[29] 	avg_time[29] 	0.004250429759
scalar tree_4_3_u05_r17_network.client[30] 	hdistance[30] 	2.7445516552986
scalar tree_4_3_u05_r17_network.client[30] 	downloads[30] 	12022
scalar tree_4_3_u05_r17_network.client[30] 	avg_time[30] 	0.004253365823
scalar tree_4_3_u05_r17_network.client[31] 	hdistance[31] 	2.6932155827006
scalar tree_4_3_u05_r17_network.client[31] 	downloads[31] 	12116
scalar tree_4_3_u05_r17_network.client[31] 	avg_time[31] 	0.004240505351
scalar tree_4_3_u05_r17_network.client[32] 	hdistance[32] 	2.6331375630739
scalar tree_4_3_u05_r17_network.client[32] 	downloads[32] 	12089
scalar tree_4_3_u05_r17_network.client[32] 	avg_time[32] 	0.004118513846
scalar tree_4_3_u05_r17_network.client[33] 	hdistance[33] 	2.6163742690058
scalar tree_4_3_u05_r17_network.client[33] 	downloads[33] 	11970
scalar tree_4_3_u05_r17_network.client[33] 	avg_time[33] 	0.004087549246
scalar tree_4_3_u05_r17_network.client[34] 	hdistance[34] 	2.7091828138163
scalar tree_4_3_u05_r17_network.client[34] 	downloads[34] 	11870
scalar tree_4_3_u05_r17_network.client[34] 	avg_time[34] 	0.004224864165
scalar tree_4_3_u05_r17_network.client[35] 	hdistance[35] 	2.6843494761158
scalar tree_4_3_u05_r17_network.client[35] 	downloads[35] 	12121
scalar tree_4_3_u05_r17_network.client[35] 	avg_time[35] 	0.004174735031
scalar tree_4_3_u05_r17_network.client[36] 	hdistance[36] 	2.7028337373568
scalar tree_4_3_u05_r17_network.client[36] 	downloads[36] 	11963
scalar tree_4_3_u05_r17_network.client[36] 	avg_time[36] 	0.004216665086
scalar tree_4_3_u05_r17_network.client[37] 	hdistance[37] 	2.652684837604
scalar tree_4_3_u05_r17_network.client[37] 	downloads[37] 	12254
scalar tree_4_3_u05_r17_network.client[37] 	avg_time[37] 	0.004145418849
scalar tree_4_3_u05_r17_network.client[38] 	hdistance[38] 	2.676859160781
scalar tree_4_3_u05_r17_network.client[38] 	downloads[38] 	12035
scalar tree_4_3_u05_r17_network.client[38] 	avg_time[38] 	0.004143910578
scalar tree_4_3_u05_r17_network.client[39] 	hdistance[39] 	2.6856634770091
scalar tree_4_3_u05_r17_network.client[39] 	downloads[39] 	11809
scalar tree_4_3_u05_r17_network.client[39] 	avg_time[39] 	0.004190529704
