version 2
run General-164-20160820-00:29:13-9589
attr a 0.9
attr cd fix0.01
attr configname General
attr cr lru
attr datetime 20160820-00:29:13
attr experiment General
attr fsize 1
attr inifile hw5115/scenario_A/SPR-FIX0.01.ini
attr iterationvars "$name=tree_4_3, $un=08, $rep=5, $cd=fix0.01, $cr=lru, $fsize=1, $a=0.9, $sl=spr, $ttl=1000, $variance=0.05"
attr iterationvars2 "$name=tree_4_3, $un=08, $rep=5, $cd=fix0.01, $cr=lru, $fsize=1, $a=0.9, $sl=spr, $ttl=1000, $variance=0.05, $repetition=0"
attr measurement "$name=tree_4_3, $un=08, $rep=5, $cd=fix0.01, $cr=lru, $fsize=1, $a=0.9, $sl=spr, $ttl=1000, $variance=0.05"
attr name tree_4_3
attr network networks.${name}_u${un}_r${rep}_network
attr processid 9589
attr rep 5
attr repetition 0
attr replication #0
attr resultdir results
attr runnumber 164
attr seedset 5
attr sl spr
attr ttl 1000
attr un 08
attr variance 0.05

scalar . 	a 	0.9
scalar . 	fsize 	1
scalar . 	rep 	5
scalar . 	ttl 	1000
scalar . 	un 	08
scalar . 	variance 	0.05
scalar tree_4_3_u08_r5_network.content_distribution 	repo-0 	0
scalar tree_4_3_u08_r5_network.content_distribution 	client-0 	13
scalar tree_4_3_u08_r5_network.content_distribution 	client-1 	14
scalar tree_4_3_u08_r5_network.content_distribution 	client-2 	15
scalar tree_4_3_u08_r5_network.content_distribution 	client-3 	16
scalar tree_4_3_u08_r5_network.content_distribution 	client-4 	17
scalar tree_4_3_u08_r5_network.content_distribution 	client-5 	18
scalar tree_4_3_u08_r5_network.content_distribution 	client-6 	19
scalar tree_4_3_u08_r5_network.content_distribution 	client-7 	20
scalar tree_4_3_u08_r5_network.content_distribution 	client-8 	21
scalar tree_4_3_u08_r5_network.content_distribution 	client-9 	22
scalar tree_4_3_u08_r5_network.content_distribution 	client-10 	23
scalar tree_4_3_u08_r5_network.content_distribution 	client-11 	24
scalar tree_4_3_u08_r5_network.content_distribution 	client-12 	25
scalar tree_4_3_u08_r5_network.content_distribution 	client-13 	26
scalar tree_4_3_u08_r5_network.content_distribution 	client-14 	27
scalar tree_4_3_u08_r5_network.content_distribution 	client-15 	28
scalar tree_4_3_u08_r5_network.content_distribution 	client-16 	29
scalar tree_4_3_u08_r5_network.content_distribution 	client-17 	30
scalar tree_4_3_u08_r5_network.content_distribution 	client-18 	31
scalar tree_4_3_u08_r5_network.content_distribution 	client-19 	32
scalar tree_4_3_u08_r5_network.content_distribution 	client-20 	33
scalar tree_4_3_u08_r5_network.content_distribution 	client-21 	34
scalar tree_4_3_u08_r5_network.content_distribution 	client-22 	35
scalar tree_4_3_u08_r5_network.content_distribution 	client-23 	36
scalar tree_4_3_u08_r5_network.content_distribution 	client-24 	37
scalar tree_4_3_u08_r5_network.content_distribution 	client-25 	38
scalar tree_4_3_u08_r5_network.content_distribution 	client-26 	39
scalar tree_4_3_u08_r5_network.content_distribution 	repo-0_card 	100000
scalar tree_4_3_u08_r5_network.content_distribution 	repo-0_price 	0
scalar tree_4_3_u08_r5_network.statistics 	stabilization_time 	2239.1
scalar tree_4_3_u08_r5_network.statistics 	p_hit 	0.17673063551119
scalar tree_4_3_u08_r5_network.statistics 	interests 	25643.425
scalar tree_4_3_u08_r5_network.statistics 	data 	17564.6
scalar tree_4_3_u08_r5_network.statistics 	hdistance 	2.8568216757411
scalar tree_4_3_u08_r5_network.statistics 	avg_time 	0.004348417946
scalar tree_4_3_u08_r5_network.statistics 	downloads 	323149
scalar tree_4_3_u08_r5_network.statistics 	total_cost 	0
scalar tree_4_3_u08_r5_network.statistics 	total_replicas 	100000
scalar tree_4_3_u08_r5_network.statistics 	inner_hit 	0.31745727203241
scalar tree_4_3_u08_r5_network.node[0].core_layer 	interests[0] 	224655
scalar tree_4_3_u08_r5_network.node[0].core_layer 	repo_load[0] 	220563
scalar tree_4_3_u08_r5_network.node[0].core_layer 	data[0] 	0
scalar tree_4_3_u08_r5_network.node[0].core_layer 	repo_int[0] 	220563
scalar tree_4_3_u08_r5_network.node[0].content_store 	p_hit[0] 	0.018214595713427
scalar tree_4_3_u08_r5_network.node[0].content_store 	hits[0] 	4092
scalar tree_4_3_u08_r5_network.node[0].content_store 	misses[0] 	220563
scalar tree_4_3_u08_r5_network.node[0].content_store 	decision_yes[0] 	2229
scalar tree_4_3_u08_r5_network.node[0].content_store 	decision_no[0] 	218334
scalar tree_4_3_u08_r5_network.node[0].content_store 	decision_ratio[0] 	0.01010595612138
scalar tree_4_3_u08_r5_network.node[1].core_layer 	interests[1] 	111374
scalar tree_4_3_u08_r5_network.node[1].core_layer 	data[1] 	108303
scalar tree_4_3_u08_r5_network.node[1].content_store 	p_hit[1] 	0.027564781726435
scalar tree_4_3_u08_r5_network.node[1].content_store 	hits[1] 	3070
scalar tree_4_3_u08_r5_network.node[1].content_store 	misses[1] 	108304
scalar tree_4_3_u08_r5_network.node[1].content_store 	decision_yes[1] 	1046
scalar tree_4_3_u08_r5_network.node[1].content_store 	decision_no[1] 	107257
scalar tree_4_3_u08_r5_network.node[1].content_store 	decision_ratio[1] 	0.0096580888802711
scalar tree_4_3_u08_r5_network.node[2].core_layer 	interests[2] 	85894
scalar tree_4_3_u08_r5_network.node[2].core_layer 	data[2] 	83046
scalar tree_4_3_u08_r5_network.node[2].content_store 	p_hit[2] 	0.03313386266794
scalar tree_4_3_u08_r5_network.node[2].content_store 	hits[2] 	2846
scalar tree_4_3_u08_r5_network.node[2].content_store 	misses[2] 	83048
scalar tree_4_3_u08_r5_network.node[2].content_store 	decision_yes[2] 	854
scalar tree_4_3_u08_r5_network.node[2].content_store 	decision_no[2] 	82192
scalar tree_4_3_u08_r5_network.node[2].content_store 	decision_ratio[2] 	0.010283457360981
scalar tree_4_3_u08_r5_network.node[3].core_layer 	interests[3] 	34382
scalar tree_4_3_u08_r5_network.node[3].core_layer 	data[3] 	33306
scalar tree_4_3_u08_r5_network.node[3].content_store 	p_hit[3] 	0.031295445291141
scalar tree_4_3_u08_r5_network.node[3].content_store 	hits[3] 	1076
scalar tree_4_3_u08_r5_network.node[3].content_store 	misses[3] 	33306
scalar tree_4_3_u08_r5_network.node[3].content_store 	decision_yes[3] 	333
scalar tree_4_3_u08_r5_network.node[3].content_store 	decision_no[3] 	32973
scalar tree_4_3_u08_r5_network.node[3].content_store 	decision_ratio[3] 	0.0099981985227887
scalar tree_4_3_u08_r5_network.node[4].core_layer 	interests[4] 	45966
scalar tree_4_3_u08_r5_network.node[4].core_layer 	data[4] 	43293
scalar tree_4_3_u08_r5_network.node[4].content_store 	p_hit[4] 	0.05815167732672
scalar tree_4_3_u08_r5_network.node[4].content_store 	hits[4] 	2673
scalar tree_4_3_u08_r5_network.node[4].content_store 	misses[4] 	43293
scalar tree_4_3_u08_r5_network.node[4].content_store 	decision_yes[4] 	434
scalar tree_4_3_u08_r5_network.node[4].content_store 	decision_no[4] 	42859
scalar tree_4_3_u08_r5_network.node[4].content_store 	decision_ratio[4] 	0.010024715311944
scalar tree_4_3_u08_r5_network.node[5].core_layer 	interests[5] 	18457
scalar tree_4_3_u08_r5_network.node[5].core_layer 	data[5] 	17083
scalar tree_4_3_u08_r5_network.node[5].content_store 	p_hit[5] 	0.074443300644742
scalar tree_4_3_u08_r5_network.node[5].content_store 	hits[5] 	1374
scalar tree_4_3_u08_r5_network.node[5].content_store 	misses[5] 	17083
scalar tree_4_3_u08_r5_network.node[5].content_store 	decision_yes[5] 	158
scalar tree_4_3_u08_r5_network.node[5].content_store 	decision_no[5] 	16925
scalar tree_4_3_u08_r5_network.node[5].content_store 	decision_ratio[5] 	0.0092489609553357
scalar tree_4_3_u08_r5_network.node[6].core_layer 	interests[6] 	18152
scalar tree_4_3_u08_r5_network.node[6].core_layer 	data[6] 	17015
scalar tree_4_3_u08_r5_network.node[6].content_store 	p_hit[6] 	0.062582635522256
scalar tree_4_3_u08_r5_network.node[6].content_store 	hits[6] 	1136
scalar tree_4_3_u08_r5_network.node[6].content_store 	misses[6] 	17016
scalar tree_4_3_u08_r5_network.node[6].content_store 	decision_yes[6] 	169
scalar tree_4_3_u08_r5_network.node[6].content_store 	decision_no[6] 	16846
scalar tree_4_3_u08_r5_network.node[6].content_store 	decision_ratio[6] 	0.0099324125771378
scalar tree_4_3_u08_r5_network.node[7].core_layer 	interests[7] 	36110
scalar tree_4_3_u08_r5_network.node[7].core_layer 	data[7] 	33984
scalar tree_4_3_u08_r5_network.node[7].content_store 	p_hit[7] 	0.058847964552755
scalar tree_4_3_u08_r5_network.node[7].content_store 	hits[7] 	2125
scalar tree_4_3_u08_r5_network.node[7].content_store 	misses[7] 	33985
scalar tree_4_3_u08_r5_network.node[7].content_store 	decision_yes[7] 	332
scalar tree_4_3_u08_r5_network.node[7].content_store 	decision_no[7] 	33652
scalar tree_4_3_u08_r5_network.node[7].content_store 	decision_ratio[7] 	0.0097693032015066
scalar tree_4_3_u08_r5_network.node[8].core_layer 	interests[8] 	36763
scalar tree_4_3_u08_r5_network.node[8].core_layer 	data[8] 	34568
scalar tree_4_3_u08_r5_network.node[8].content_store 	p_hit[8] 	0.059625166607731
scalar tree_4_3_u08_r5_network.node[8].content_store 	hits[8] 	2192
scalar tree_4_3_u08_r5_network.node[8].content_store 	misses[8] 	34571
scalar tree_4_3_u08_r5_network.node[8].content_store 	decision_yes[8] 	377
scalar tree_4_3_u08_r5_network.node[8].content_store 	decision_no[8] 	34191
scalar tree_4_3_u08_r5_network.node[8].content_store 	decision_ratio[8] 	0.010906040268456
scalar tree_4_3_u08_r5_network.node[9].core_layer 	interests[9] 	9141
scalar tree_4_3_u08_r5_network.node[9].core_layer 	data[9] 	8588
scalar tree_4_3_u08_r5_network.node[9].content_store 	p_hit[9] 	0.06049666338475
scalar tree_4_3_u08_r5_network.node[9].content_store 	hits[9] 	553
scalar tree_4_3_u08_r5_network.node[9].content_store 	misses[9] 	8588
scalar tree_4_3_u08_r5_network.node[9].content_store 	decision_yes[9] 	68
scalar tree_4_3_u08_r5_network.node[9].content_store 	decision_no[9] 	8520
scalar tree_4_3_u08_r5_network.node[9].content_store 	decision_ratio[9] 	0.007918025151374
scalar tree_4_3_u08_r5_network.node[10].core_layer 	interests[10] 	27092
scalar tree_4_3_u08_r5_network.node[10].core_layer 	data[10] 	25633
scalar tree_4_3_u08_r5_network.node[10].content_store 	p_hit[10] 	0.053853536099217
scalar tree_4_3_u08_r5_network.node[10].content_store 	hits[10] 	1459
scalar tree_4_3_u08_r5_network.node[10].content_store 	misses[10] 	25633
scalar tree_4_3_u08_r5_network.node[10].content_store 	decision_yes[10] 	265
scalar tree_4_3_u08_r5_network.node[10].content_store 	decision_no[10] 	25368
scalar tree_4_3_u08_r5_network.node[10].content_store 	decision_ratio[10] 	0.010338235867827
scalar tree_4_3_u08_r5_network.node[11].core_layer 	interests[11] 	45384
scalar tree_4_3_u08_r5_network.node[11].core_layer 	data[11] 	42738
scalar tree_4_3_u08_r5_network.node[11].content_store 	p_hit[11] 	0.05830248545743
scalar tree_4_3_u08_r5_network.node[11].content_store 	hits[11] 	2646
scalar tree_4_3_u08_r5_network.node[11].content_store 	misses[11] 	42738
scalar tree_4_3_u08_r5_network.node[11].content_store 	decision_yes[11] 	428
scalar tree_4_3_u08_r5_network.node[11].content_store 	decision_no[11] 	42310
scalar tree_4_3_u08_r5_network.node[11].content_store 	decision_ratio[11] 	0.010014506996116
scalar tree_4_3_u08_r5_network.node[12].core_layer 	interests[12] 	9212
scalar tree_4_3_u08_r5_network.node[12].core_layer 	data[12] 	8749
scalar tree_4_3_u08_r5_network.node[12].content_store 	p_hit[12] 	0.050260529743812
scalar tree_4_3_u08_r5_network.node[12].content_store 	hits[12] 	463
scalar tree_4_3_u08_r5_network.node[12].content_store 	misses[12] 	8749
scalar tree_4_3_u08_r5_network.node[12].content_store 	decision_yes[12] 	99
scalar tree_4_3_u08_r5_network.node[12].content_store 	decision_no[12] 	8650
scalar tree_4_3_u08_r5_network.node[12].content_store 	decision_ratio[12] 	0.011315578923306
scalar tree_4_3_u08_r5_network.node[13].core_layer 	interests[13] 	11945
scalar tree_4_3_u08_r5_network.node[13].core_layer 	data[13] 	9226
scalar tree_4_3_u08_r5_network.node[13].content_store 	p_hit[13] 	0.22762662201758
scalar tree_4_3_u08_r5_network.node[13].content_store 	hits[13] 	2719
scalar tree_4_3_u08_r5_network.node[13].content_store 	misses[13] 	9226
scalar tree_4_3_u08_r5_network.node[13].content_store 	decision_yes[13] 	98
scalar tree_4_3_u08_r5_network.node[13].content_store 	decision_no[13] 	9128
scalar tree_4_3_u08_r5_network.node[13].content_store 	decision_ratio[13] 	0.01062215477997
scalar tree_4_3_u08_r5_network.node[14].core_layer 	interests[14] 	12105
scalar tree_4_3_u08_r5_network.node[14].core_layer 	data[14] 	9168
scalar tree_4_3_u08_r5_network.node[14].content_store 	p_hit[14] 	0.24262701363073
scalar tree_4_3_u08_r5_network.node[14].content_store 	hits[14] 	2937
scalar tree_4_3_u08_r5_network.node[14].content_store 	misses[14] 	9168
scalar tree_4_3_u08_r5_network.node[14].content_store 	decision_yes[14] 	81
scalar tree_4_3_u08_r5_network.node[14].content_store 	decision_no[14] 	9087
scalar tree_4_3_u08_r5_network.node[14].content_store 	decision_ratio[14] 	0.0088350785340314
scalar tree_4_3_u08_r5_network.node[15].core_layer 	interests[15] 	11936
scalar tree_4_3_u08_r5_network.node[15].core_layer 	data[15] 	9103
scalar tree_4_3_u08_r5_network.node[15].content_store 	p_hit[15] 	0.2372654155496
scalar tree_4_3_u08_r5_network.node[15].content_store 	hits[15] 	2832
scalar tree_4_3_u08_r5_network.node[15].content_store 	misses[15] 	9104
scalar tree_4_3_u08_r5_network.node[15].content_store 	decision_yes[15] 	87
scalar tree_4_3_u08_r5_network.node[15].content_store 	decision_no[15] 	9016
scalar tree_4_3_u08_r5_network.node[15].content_store 	decision_ratio[15] 	0.0095572888058882
scalar tree_4_3_u08_r5_network.node[16].core_layer 	interests[16] 	12137
scalar tree_4_3_u08_r5_network.node[16].core_layer 	data[16] 	9290
scalar tree_4_3_u08_r5_network.node[16].content_store 	p_hit[16] 	0.23457197000906
scalar tree_4_3_u08_r5_network.node[16].content_store 	hits[16] 	2847
scalar tree_4_3_u08_r5_network.node[16].content_store 	misses[16] 	9290
scalar tree_4_3_u08_r5_network.node[16].content_store 	decision_yes[16] 	86
scalar tree_4_3_u08_r5_network.node[16].content_store 	decision_no[16] 	9204
scalar tree_4_3_u08_r5_network.node[16].content_store 	decision_ratio[16] 	0.0092572658772874
scalar tree_4_3_u08_r5_network.node[17].core_layer 	interests[17] 	11911
scalar tree_4_3_u08_r5_network.node[17].core_layer 	data[17] 	9163
scalar tree_4_3_u08_r5_network.node[17].content_store 	p_hit[17] 	0.23071110737973
scalar tree_4_3_u08_r5_network.node[17].content_store 	hits[17] 	2748
scalar tree_4_3_u08_r5_network.node[17].content_store 	misses[17] 	9163
scalar tree_4_3_u08_r5_network.node[17].content_store 	decision_yes[17] 	110
scalar tree_4_3_u08_r5_network.node[17].content_store 	decision_no[17] 	9053
scalar tree_4_3_u08_r5_network.node[17].content_store 	decision_ratio[17] 	0.012004801920768
scalar tree_4_3_u08_r5_network.node[18].core_layer 	interests[18] 	11943
scalar tree_4_3_u08_r5_network.node[18].core_layer 	data[18] 	9294
scalar tree_4_3_u08_r5_network.node[18].content_store 	p_hit[18] 	0.22180356694298
scalar tree_4_3_u08_r5_network.node[18].content_store 	hits[18] 	2649
scalar tree_4_3_u08_r5_network.node[18].content_store 	misses[18] 	9294
scalar tree_4_3_u08_r5_network.node[18].content_store 	decision_yes[18] 	97
scalar tree_4_3_u08_r5_network.node[18].content_store 	decision_no[18] 	9197
scalar tree_4_3_u08_r5_network.node[18].content_store 	decision_ratio[18] 	0.010436840972671
scalar tree_4_3_u08_r5_network.node[19].core_layer 	interests[19] 	12078
scalar tree_4_3_u08_r5_network.node[19].core_layer 	data[19] 	9179
scalar tree_4_3_u08_r5_network.node[19].content_store 	p_hit[19] 	0.24002318264613
scalar tree_4_3_u08_r5_network.node[19].content_store 	hits[19] 	2899
scalar tree_4_3_u08_r5_network.node[19].content_store 	misses[19] 	9179
scalar tree_4_3_u08_r5_network.node[19].content_store 	decision_yes[19] 	87
scalar tree_4_3_u08_r5_network.node[19].content_store 	decision_no[19] 	9092
scalar tree_4_3_u08_r5_network.node[19].content_store 	decision_ratio[19] 	0.0094781566619457
scalar tree_4_3_u08_r5_network.node[20].core_layer 	interests[20] 	11951
scalar tree_4_3_u08_r5_network.node[20].core_layer 	data[20] 	9091
scalar tree_4_3_u08_r5_network.node[20].content_store 	p_hit[20] 	0.23931051794829
scalar tree_4_3_u08_r5_network.node[20].content_store 	hits[20] 	2860
scalar tree_4_3_u08_r5_network.node[20].content_store 	misses[20] 	9091
scalar tree_4_3_u08_r5_network.node[20].content_store 	decision_yes[20] 	105
scalar tree_4_3_u08_r5_network.node[20].content_store 	decision_no[20] 	8986
scalar tree_4_3_u08_r5_network.node[20].content_store 	decision_ratio[20] 	0.011549884501155
scalar tree_4_3_u08_r5_network.node[21].core_layer 	interests[21] 	11946
scalar tree_4_3_u08_r5_network.node[21].core_layer 	data[21] 	9061
scalar tree_4_3_u08_r5_network.node[21].content_store 	p_hit[21] 	0.24150343211117
scalar tree_4_3_u08_r5_network.node[21].content_store 	hits[21] 	2885
scalar tree_4_3_u08_r5_network.node[21].content_store 	misses[21] 	9061
scalar tree_4_3_u08_r5_network.node[21].content_store 	decision_yes[21] 	83
scalar tree_4_3_u08_r5_network.node[21].content_store 	decision_no[21] 	8978
scalar tree_4_3_u08_r5_network.node[21].content_store 	decision_ratio[21] 	0.0091601368502373
scalar tree_4_3_u08_r5_network.node[22].core_layer 	interests[22] 	11816
scalar tree_4_3_u08_r5_network.node[22].core_layer 	data[22] 	9005
scalar tree_4_3_u08_r5_network.node[22].content_store 	p_hit[22] 	0.23798239675017
scalar tree_4_3_u08_r5_network.node[22].content_store 	hits[22] 	2812
scalar tree_4_3_u08_r5_network.node[22].content_store 	misses[22] 	9004
scalar tree_4_3_u08_r5_network.node[22].content_store 	decision_yes[22] 	105
scalar tree_4_3_u08_r5_network.node[22].content_store 	decision_no[22] 	8900
scalar tree_4_3_u08_r5_network.node[22].content_store 	decision_ratio[22] 	0.011660188784009
scalar tree_4_3_u08_r5_network.node[23].core_layer 	interests[23] 	12098
scalar tree_4_3_u08_r5_network.node[23].core_layer 	data[23] 	9044
scalar tree_4_3_u08_r5_network.node[23].content_store 	p_hit[23] 	0.25235576128286
scalar tree_4_3_u08_r5_network.node[23].content_store 	hits[23] 	3053
scalar tree_4_3_u08_r5_network.node[23].content_store 	misses[23] 	9045
scalar tree_4_3_u08_r5_network.node[23].content_store 	decision_yes[23] 	86
scalar tree_4_3_u08_r5_network.node[23].content_store 	decision_no[23] 	8958
scalar tree_4_3_u08_r5_network.node[23].content_store 	decision_ratio[23] 	0.0095090667846086
scalar tree_4_3_u08_r5_network.node[24].core_layer 	interests[24] 	11960
scalar tree_4_3_u08_r5_network.node[24].core_layer 	data[24] 	8957
scalar tree_4_3_u08_r5_network.node[24].content_store 	p_hit[24] 	0.25108695652174
scalar tree_4_3_u08_r5_network.node[24].content_store 	hits[24] 	3003
scalar tree_4_3_u08_r5_network.node[24].content_store 	misses[24] 	8957
scalar tree_4_3_u08_r5_network.node[24].content_store 	decision_yes[24] 	79
scalar tree_4_3_u08_r5_network.node[24].content_store 	decision_no[24] 	8878
scalar tree_4_3_u08_r5_network.node[24].content_store 	decision_ratio[24] 	0.0088199173830524
scalar tree_4_3_u08_r5_network.node[25].core_layer 	interests[25] 	12083
scalar tree_4_3_u08_r5_network.node[25].core_layer 	data[25] 	9174
scalar tree_4_3_u08_r5_network.node[25].content_store 	p_hit[25] 	0.24066870810229
scalar tree_4_3_u08_r5_network.node[25].content_store 	hits[25] 	2908
scalar tree_4_3_u08_r5_network.node[25].content_store 	misses[25] 	9175
scalar tree_4_3_u08_r5_network.node[25].content_store 	decision_yes[25] 	94
scalar tree_4_3_u08_r5_network.node[25].content_store 	decision_no[25] 	9080
scalar tree_4_3_u08_r5_network.node[25].content_store 	decision_ratio[25] 	0.010246348375845
scalar tree_4_3_u08_r5_network.node[26].core_layer 	interests[26] 	11997
scalar tree_4_3_u08_r5_network.node[26].core_layer 	data[26] 	9126
scalar tree_4_3_u08_r5_network.node[26].content_store 	p_hit[26] 	0.23922647328499
scalar tree_4_3_u08_r5_network.node[26].content_store 	hits[26] 	2870
scalar tree_4_3_u08_r5_network.node[26].content_store 	misses[26] 	9127
scalar tree_4_3_u08_r5_network.node[26].content_store 	decision_yes[26] 	84
scalar tree_4_3_u08_r5_network.node[26].content_store 	decision_no[26] 	9042
scalar tree_4_3_u08_r5_network.node[26].content_store 	decision_ratio[26] 	0.0092044707429323
scalar tree_4_3_u08_r5_network.node[27].core_layer 	interests[27] 	12143
scalar tree_4_3_u08_r5_network.node[27].core_layer 	data[27] 	9328
scalar tree_4_3_u08_r5_network.node[27].content_store 	p_hit[27] 	0.23182080210821
scalar tree_4_3_u08_r5_network.node[27].content_store 	hits[27] 	2815
scalar tree_4_3_u08_r5_network.node[27].content_store 	misses[27] 	9328
scalar tree_4_3_u08_r5_network.node[27].content_store 	decision_yes[27] 	92
scalar tree_4_3_u08_r5_network.node[27].content_store 	decision_no[27] 	9236
scalar tree_4_3_u08_r5_network.node[27].content_store 	decision_ratio[27] 	0.0098627787307033
scalar tree_4_3_u08_r5_network.node[28].core_layer 	interests[28] 	11951
scalar tree_4_3_u08_r5_network.node[28].core_layer 	data[28] 	9105
scalar tree_4_3_u08_r5_network.node[28].content_store 	p_hit[28] 	0.23813906786043
scalar tree_4_3_u08_r5_network.node[28].content_store 	hits[28] 	2846
scalar tree_4_3_u08_r5_network.node[28].content_store 	misses[28] 	9105
scalar tree_4_3_u08_r5_network.node[28].content_store 	decision_yes[28] 	96
scalar tree_4_3_u08_r5_network.node[28].content_store 	decision_no[28] 	9009
scalar tree_4_3_u08_r5_network.node[28].content_store 	decision_ratio[28] 	0.010543657331137
scalar tree_4_3_u08_r5_network.node[29].core_layer 	interests[29] 	11936
scalar tree_4_3_u08_r5_network.node[29].core_layer 	data[29] 	9135
scalar tree_4_3_u08_r5_network.node[29].content_store 	p_hit[29] 	0.234668230563
scalar tree_4_3_u08_r5_network.node[29].content_store 	hits[29] 	2801
scalar tree_4_3_u08_r5_network.node[29].content_store 	misses[29] 	9135
scalar tree_4_3_u08_r5_network.node[29].content_store 	decision_yes[29] 	104
scalar tree_4_3_u08_r5_network.node[29].content_store 	decision_no[29] 	9031
scalar tree_4_3_u08_r5_network.node[29].content_store 	decision_ratio[29] 	0.011384783798577
scalar tree_4_3_u08_r5_network.node[30].core_layer 	interests[30] 	11999
scalar tree_4_3_u08_r5_network.node[30].core_layer 	data[30] 	9141
scalar tree_4_3_u08_r5_network.node[30].content_store 	p_hit[30] 	0.23818651554296
scalar tree_4_3_u08_r5_network.node[30].content_store 	hits[30] 	2858
scalar tree_4_3_u08_r5_network.node[30].content_store 	misses[30] 	9141
scalar tree_4_3_u08_r5_network.node[30].content_store 	decision_yes[30] 	92
scalar tree_4_3_u08_r5_network.node[30].content_store 	decision_no[30] 	9049
scalar tree_4_3_u08_r5_network.node[30].content_store 	decision_ratio[30] 	0.010064544360573
scalar tree_4_3_u08_r5_network.node[31].core_layer 	interests[31] 	11907
scalar tree_4_3_u08_r5_network.node[31].core_layer 	data[31] 	9191
scalar tree_4_3_u08_r5_network.node[31].content_store 	p_hit[31] 	0.22810111699001
scalar tree_4_3_u08_r5_network.node[31].content_store 	hits[31] 	2716
scalar tree_4_3_u08_r5_network.node[31].content_store 	misses[31] 	9191
scalar tree_4_3_u08_r5_network.node[31].content_store 	decision_yes[31] 	85
scalar tree_4_3_u08_r5_network.node[31].content_store 	decision_no[31] 	9106
scalar tree_4_3_u08_r5_network.node[31].content_store 	decision_ratio[31] 	0.0092481775650092
scalar tree_4_3_u08_r5_network.node[32].core_layer 	interests[32] 	11797
scalar tree_4_3_u08_r5_network.node[32].core_layer 	data[32] 	9028
scalar tree_4_3_u08_r5_network.node[32].content_store 	p_hit[32] 	0.23472069170128
scalar tree_4_3_u08_r5_network.node[32].content_store 	hits[32] 	2769
scalar tree_4_3_u08_r5_network.node[32].content_store 	misses[32] 	9028
scalar tree_4_3_u08_r5_network.node[32].content_store 	decision_yes[32] 	90
scalar tree_4_3_u08_r5_network.node[32].content_store 	decision_no[32] 	8938
scalar tree_4_3_u08_r5_network.node[32].content_store 	decision_ratio[32] 	0.0099689853788214
scalar tree_4_3_u08_r5_network.node[33].core_layer 	interests[33] 	11796
scalar tree_4_3_u08_r5_network.node[33].core_layer 	data[33] 	8788
scalar tree_4_3_u08_r5_network.node[33].content_store 	p_hit[33] 	0.25500169549
scalar tree_4_3_u08_r5_network.node[33].content_store 	hits[33] 	3008
scalar tree_4_3_u08_r5_network.node[33].content_store 	misses[33] 	8788
scalar tree_4_3_u08_r5_network.node[33].content_store 	decision_yes[33] 	91
scalar tree_4_3_u08_r5_network.node[33].content_store 	decision_no[33] 	8697
scalar tree_4_3_u08_r5_network.node[33].content_store 	decision_ratio[33] 	0.010355029585799
scalar tree_4_3_u08_r5_network.node[34].core_layer 	interests[34] 	11876
scalar tree_4_3_u08_r5_network.node[34].core_layer 	data[34] 	9060
scalar tree_4_3_u08_r5_network.node[34].content_store 	p_hit[34] 	0.23711687436847
scalar tree_4_3_u08_r5_network.node[34].content_store 	hits[34] 	2816
scalar tree_4_3_u08_r5_network.node[34].content_store 	misses[34] 	9060
scalar tree_4_3_u08_r5_network.node[34].content_store 	decision_yes[34] 	93
scalar tree_4_3_u08_r5_network.node[34].content_store 	decision_no[34] 	8967
scalar tree_4_3_u08_r5_network.node[34].content_store 	decision_ratio[34] 	0.010264900662252
scalar tree_4_3_u08_r5_network.node[35].core_layer 	interests[35] 	11885
scalar tree_4_3_u08_r5_network.node[35].core_layer 	data[35] 	9208
scalar tree_4_3_u08_r5_network.node[35].content_store 	p_hit[35] 	0.22507362221287
scalar tree_4_3_u08_r5_network.node[35].content_store 	hits[35] 	2675
scalar tree_4_3_u08_r5_network.node[35].content_store 	misses[35] 	9210
scalar tree_4_3_u08_r5_network.node[35].content_store 	decision_yes[35] 	85
scalar tree_4_3_u08_r5_network.node[35].content_store 	decision_no[35] 	9123
scalar tree_4_3_u08_r5_network.node[35].content_store 	decision_ratio[35] 	0.0092311033883579
scalar tree_4_3_u08_r5_network.node[36].core_layer 	interests[36] 	11888
scalar tree_4_3_u08_r5_network.node[36].core_layer 	data[36] 	9071
scalar tree_4_3_u08_r5_network.node[36].content_store 	p_hit[36] 	0.23696164199192
scalar tree_4_3_u08_r5_network.node[36].content_store 	hits[36] 	2817
scalar tree_4_3_u08_r5_network.node[36].content_store 	misses[36] 	9071
scalar tree_4_3_u08_r5_network.node[36].content_store 	decision_yes[36] 	92
scalar tree_4_3_u08_r5_network.node[36].content_store 	decision_no[36] 	8979
scalar tree_4_3_u08_r5_network.node[36].content_store 	decision_ratio[36] 	0.01014221144306
scalar tree_4_3_u08_r5_network.node[37].core_layer 	interests[37] 	12097
scalar tree_4_3_u08_r5_network.node[37].core_layer 	data[37] 	9113
scalar tree_4_3_u08_r5_network.node[37].content_store 	p_hit[37] 	0.24659006365215
scalar tree_4_3_u08_r5_network.node[37].content_store 	hits[37] 	2983
scalar tree_4_3_u08_r5_network.node[37].content_store 	misses[37] 	9114
scalar tree_4_3_u08_r5_network.node[37].content_store 	decision_yes[37] 	92
scalar tree_4_3_u08_r5_network.node[37].content_store 	decision_no[37] 	9021
scalar tree_4_3_u08_r5_network.node[37].content_store 	decision_ratio[37] 	0.010095468012729
scalar tree_4_3_u08_r5_network.node[38].core_layer 	interests[38] 	11905
scalar tree_4_3_u08_r5_network.node[38].core_layer 	data[38] 	9017
scalar tree_4_3_u08_r5_network.node[38].content_store 	p_hit[38] 	0.24258714825703
scalar tree_4_3_u08_r5_network.node[38].content_store 	hits[38] 	2888
scalar tree_4_3_u08_r5_network.node[38].content_store 	misses[38] 	9017
scalar tree_4_3_u08_r5_network.node[38].content_store 	decision_yes[38] 	89
scalar tree_4_3_u08_r5_network.node[38].content_store 	decision_no[38] 	8928
scalar tree_4_3_u08_r5_network.node[38].content_store 	decision_ratio[38] 	0.0098702450926029
scalar tree_4_3_u08_r5_network.node[39].core_layer 	interests[39] 	12069
scalar tree_4_3_u08_r5_network.node[39].core_layer 	data[39] 	9212
scalar tree_4_3_u08_r5_network.node[39].content_store 	p_hit[39] 	0.23672218079377
scalar tree_4_3_u08_r5_network.node[39].content_store 	hits[39] 	2857
scalar tree_4_3_u08_r5_network.node[39].content_store 	misses[39] 	9212
scalar tree_4_3_u08_r5_network.node[39].content_store 	decision_yes[39] 	96
scalar tree_4_3_u08_r5_network.node[39].content_store 	decision_no[39] 	9116
scalar tree_4_3_u08_r5_network.node[39].content_store 	decision_ratio[39] 	0.010421189752497
scalar tree_4_3_u08_r5_network.client[13] 	hdistance[13] 	2.8849727919632
scalar tree_4_3_u08_r5_network.client[13] 	downloads[13] 	11945
scalar tree_4_3_u08_r5_network.client[13] 	avg_time[13] 	0.004394152211
scalar tree_4_3_u08_r5_network.client[14] 	hdistance[14] 	2.8534489880215
scalar tree_4_3_u08_r5_network.client[14] 	downloads[14] 	12105
scalar tree_4_3_u08_r5_network.client[14] 	avg_time[14] 	0.004339856536
scalar tree_4_3_u08_r5_network.client[15] 	hdistance[15] 	2.8713028906577
scalar tree_4_3_u08_r5_network.client[15] 	downloads[15] 	11935
scalar tree_4_3_u08_r5_network.client[15] 	avg_time[15] 	0.004370517615
scalar tree_4_3_u08_r5_network.client[16] 	hdistance[16] 	2.8675125648842
scalar tree_4_3_u08_r5_network.client[16] 	downloads[16] 	12137
scalar tree_4_3_u08_r5_network.client[16] 	avg_time[16] 	0.004366644413
scalar tree_4_3_u08_r5_network.client[17] 	hdistance[17] 	2.8465284191084
scalar tree_4_3_u08_r5_network.client[17] 	downloads[17] 	11911
scalar tree_4_3_u08_r5_network.client[17] 	avg_time[17] 	0.004336156866
scalar tree_4_3_u08_r5_network.client[18] 	hdistance[18] 	2.8927405174579
scalar tree_4_3_u08_r5_network.client[18] 	downloads[18] 	11943
scalar tree_4_3_u08_r5_network.client[18] 	avg_time[18] 	0.004407599774
scalar tree_4_3_u08_r5_network.client[19] 	hdistance[19] 	2.8509687034277
scalar tree_4_3_u08_r5_network.client[19] 	downloads[19] 	12078
scalar tree_4_3_u08_r5_network.client[19] 	avg_time[19] 	0.004339788347
scalar tree_4_3_u08_r5_network.client[20] 	hdistance[20] 	2.8435277382646
scalar tree_4_3_u08_r5_network.client[20] 	downloads[20] 	11951
scalar tree_4_3_u08_r5_network.client[20] 	avg_time[20] 	0.004325738484
scalar tree_4_3_u08_r5_network.client[21] 	hdistance[21] 	2.8611250627825
scalar tree_4_3_u08_r5_network.client[21] 	downloads[21] 	11946
scalar tree_4_3_u08_r5_network.client[21] 	avg_time[21] 	0.004345719423
scalar tree_4_3_u08_r5_network.client[22] 	hdistance[22] 	2.8591859185918
scalar tree_4_3_u08_r5_network.client[22] 	downloads[22] 	11817
scalar tree_4_3_u08_r5_network.client[22] 	avg_time[22] 	0.004349610742
scalar tree_4_3_u08_r5_network.client[23] 	hdistance[23] 	2.8039183268579
scalar tree_4_3_u08_r5_network.client[23] 	downloads[23] 	12097
scalar tree_4_3_u08_r5_network.client[23] 	avg_time[23] 	0.004266013322
scalar tree_4_3_u08_r5_network.client[24] 	hdistance[24] 	2.8178093645485
scalar tree_4_3_u08_r5_network.client[24] 	downloads[24] 	11960
scalar tree_4_3_u08_r5_network.client[24] 	avg_time[24] 	0.004287789642
scalar tree_4_3_u08_r5_network.client[25] 	hdistance[25] 	2.8595431219997
scalar tree_4_3_u08_r5_network.client[25] 	downloads[25] 	12082
scalar tree_4_3_u08_r5_network.client[25] 	avg_time[25] 	0.004351714824
scalar tree_4_3_u08_r5_network.client[26] 	hdistance[26] 	2.8533677892631
scalar tree_4_3_u08_r5_network.client[26] 	downloads[26] 	11996
scalar tree_4_3_u08_r5_network.client[26] 	avg_time[26] 	0.004343895508
scalar tree_4_3_u08_r5_network.client[27] 	hdistance[27] 	2.870130939636
scalar tree_4_3_u08_r5_network.client[27] 	downloads[27] 	12143
scalar tree_4_3_u08_r5_network.client[27] 	avg_time[27] 	0.004371735074
scalar tree_4_3_u08_r5_network.client[28] 	hdistance[28] 	2.8568320642624
scalar tree_4_3_u08_r5_network.client[28] 	downloads[28] 	11951
scalar tree_4_3_u08_r5_network.client[28] 	avg_time[28] 	0.004346791526
scalar tree_4_3_u08_r5_network.client[29] 	hdistance[29] 	2.8417392761394
scalar tree_4_3_u08_r5_network.client[29] 	downloads[29] 	11936
scalar tree_4_3_u08_r5_network.client[29] 	avg_time[29] 	0.004333944724
scalar tree_4_3_u08_r5_network.client[30] 	hdistance[30] 	2.8494041170097
scalar tree_4_3_u08_r5_network.client[30] 	downloads[30] 	11999
scalar tree_4_3_u08_r5_network.client[30] 	avg_time[30] 	0.004338025127
scalar tree_4_3_u08_r5_network.client[31] 	hdistance[31] 	2.9026622994877
scalar tree_4_3_u08_r5_network.client[31] 	downloads[31] 	11907
scalar tree_4_3_u08_r5_network.client[31] 	avg_time[31] 	0.004415550904
scalar tree_4_3_u08_r5_network.client[32] 	hdistance[32] 	2.8605577689243
scalar tree_4_3_u08_r5_network.client[32] 	downloads[32] 	11797
scalar tree_4_3_u08_r5_network.client[32] 	avg_time[32] 	0.004357924239
scalar tree_4_3_u08_r5_network.client[33] 	hdistance[33] 	2.827992539844
scalar tree_4_3_u08_r5_network.client[33] 	downloads[33] 	11796
scalar tree_4_3_u08_r5_network.client[33] 	avg_time[33] 	0.004292638578
scalar tree_4_3_u08_r5_network.client[34] 	hdistance[34] 	2.8524755810037
scalar tree_4_3_u08_r5_network.client[34] 	downloads[34] 	11876
scalar tree_4_3_u08_r5_network.client[34] 	avg_time[34] 	0.004344708435
scalar tree_4_3_u08_r5_network.client[35] 	hdistance[35] 	2.8725069426912
scalar tree_4_3_u08_r5_network.client[35] 	downloads[35] 	11883
scalar tree_4_3_u08_r5_network.client[35] 	avg_time[35] 	0.004379378608
scalar tree_4_3_u08_r5_network.client[36] 	hdistance[36] 	2.8781123822342
scalar tree_4_3_u08_r5_network.client[36] 	downloads[36] 	11888
scalar tree_4_3_u08_r5_network.client[36] 	avg_time[36] 	0.004378361739
scalar tree_4_3_u08_r5_network.client[37] 	hdistance[37] 	2.8186177248677
scalar tree_4_3_u08_r5_network.client[37] 	downloads[37] 	12096
scalar tree_4_3_u08_r5_network.client[37] 	avg_time[37] 	0.004294751719
scalar tree_4_3_u08_r5_network.client[38] 	hdistance[38] 	2.8614867702646
scalar tree_4_3_u08_r5_network.client[38] 	downloads[38] 	11905
scalar tree_4_3_u08_r5_network.client[38] 	avg_time[38] 	0.004351445981
scalar tree_4_3_u08_r5_network.client[39] 	hdistance[39] 	2.8757146408153
scalar tree_4_3_u08_r5_network.client[39] 	downloads[39] 	12069
scalar tree_4_3_u08_r5_network.client[39] 	avg_time[39] 	0.004376830205
