version 2
run General-160-20160820-00:20:37-9589
attr a 0.9
attr cd fix0.01
attr configname General
attr cr lru
attr datetime 20160820-00:20:37
attr experiment General
attr fsize 1
attr inifile hw5115/scenario_A/SPR-FIX0.01.ini
attr iterationvars "$name=tree_4_3, $un=08, $rep=1, $cd=fix0.01, $cr=lru, $fsize=1, $a=0.9, $sl=spr, $ttl=1000, $variance=0.05"
attr iterationvars2 "$name=tree_4_3, $un=08, $rep=1, $cd=fix0.01, $cr=lru, $fsize=1, $a=0.9, $sl=spr, $ttl=1000, $variance=0.05, $repetition=0"
attr measurement "$name=tree_4_3, $un=08, $rep=1, $cd=fix0.01, $cr=lru, $fsize=1, $a=0.9, $sl=spr, $ttl=1000, $variance=0.05"
attr name tree_4_3
attr network networks.${name}_u${un}_r${rep}_network
attr processid 9589
attr rep 1
attr repetition 0
attr replication #0
attr resultdir results
attr runnumber 160
attr seedset 1
attr sl spr
attr ttl 1000
attr un 08
attr variance 0.05

scalar . 	a 	0.9
scalar . 	fsize 	1
scalar . 	rep 	1
scalar . 	ttl 	1000
scalar . 	un 	08
scalar . 	variance 	0.05
scalar tree_4_3_u08_r1_network.content_distribution 	repo-0 	0
scalar tree_4_3_u08_r1_network.content_distribution 	client-0 	13
scalar tree_4_3_u08_r1_network.content_distribution 	client-1 	14
scalar tree_4_3_u08_r1_network.content_distribution 	client-2 	15
scalar tree_4_3_u08_r1_network.content_distribution 	client-3 	16
scalar tree_4_3_u08_r1_network.content_distribution 	client-4 	17
scalar tree_4_3_u08_r1_network.content_distribution 	client-5 	18
scalar tree_4_3_u08_r1_network.content_distribution 	client-6 	19
scalar tree_4_3_u08_r1_network.content_distribution 	client-7 	20
scalar tree_4_3_u08_r1_network.content_distribution 	client-8 	21
scalar tree_4_3_u08_r1_network.content_distribution 	client-9 	22
scalar tree_4_3_u08_r1_network.content_distribution 	client-10 	23
scalar tree_4_3_u08_r1_network.content_distribution 	client-11 	24
scalar tree_4_3_u08_r1_network.content_distribution 	client-12 	25
scalar tree_4_3_u08_r1_network.content_distribution 	client-13 	26
scalar tree_4_3_u08_r1_network.content_distribution 	client-14 	27
scalar tree_4_3_u08_r1_network.content_distribution 	client-15 	28
scalar tree_4_3_u08_r1_network.content_distribution 	client-16 	29
scalar tree_4_3_u08_r1_network.content_distribution 	client-17 	30
scalar tree_4_3_u08_r1_network.content_distribution 	client-18 	31
scalar tree_4_3_u08_r1_network.content_distribution 	client-19 	32
scalar tree_4_3_u08_r1_network.content_distribution 	client-20 	33
scalar tree_4_3_u08_r1_network.content_distribution 	client-21 	34
scalar tree_4_3_u08_r1_network.content_distribution 	client-22 	35
scalar tree_4_3_u08_r1_network.content_distribution 	client-23 	36
scalar tree_4_3_u08_r1_network.content_distribution 	client-24 	37
scalar tree_4_3_u08_r1_network.content_distribution 	client-25 	38
scalar tree_4_3_u08_r1_network.content_distribution 	client-26 	39
scalar tree_4_3_u08_r1_network.content_distribution 	repo-0_card 	100000
scalar tree_4_3_u08_r1_network.content_distribution 	repo-0_price 	0
scalar tree_4_3_u08_r1_network.statistics 	stabilization_time 	2437.3
scalar tree_4_3_u08_r1_network.statistics 	p_hit 	0.17941224690197
scalar tree_4_3_u08_r1_network.statistics 	interests 	25630.425
scalar tree_4_3_u08_r1_network.statistics 	data 	17541.375
scalar tree_4_3_u08_r1_network.statistics 	hdistance 	2.8492510591629
scalar tree_4_3_u08_r1_network.statistics 	avg_time 	0.004337090318
scalar tree_4_3_u08_r1_network.statistics 	downloads 	323563
scalar tree_4_3_u08_r1_network.statistics 	total_cost 	0
scalar tree_4_3_u08_r1_network.statistics 	total_replicas 	100000
scalar tree_4_3_u08_r1_network.statistics 	inner_hit 	0.31937520668309
scalar tree_4_3_u08_r1_network.node[0].core_layer 	interests[0] 	225002
scalar tree_4_3_u08_r1_network.node[0].core_layer 	repo_load[0] 	220225
scalar tree_4_3_u08_r1_network.node[0].core_layer 	data[0] 	0
scalar tree_4_3_u08_r1_network.node[0].core_layer 	repo_int[0] 	220225
scalar tree_4_3_u08_r1_network.node[0].content_store 	p_hit[0] 	0.021230922391801
scalar tree_4_3_u08_r1_network.node[0].content_store 	hits[0] 	4777
scalar tree_4_3_u08_r1_network.node[0].content_store 	misses[0] 	220225
scalar tree_4_3_u08_r1_network.node[0].content_store 	decision_yes[0] 	2236
scalar tree_4_3_u08_r1_network.node[0].content_store 	decision_no[0] 	217989
scalar tree_4_3_u08_r1_network.node[0].content_store 	decision_ratio[0] 	0.010153252355545
scalar tree_4_3_u08_r1_network.node[1].core_layer 	interests[1] 	120043
scalar tree_4_3_u08_r1_network.node[1].core_layer 	data[1] 	116576
scalar tree_4_3_u08_r1_network.node[1].content_store 	p_hit[1] 	0.028864656831302
scalar tree_4_3_u08_r1_network.node[1].content_store 	hits[1] 	3465
scalar tree_4_3_u08_r1_network.node[1].content_store 	misses[1] 	116578
scalar tree_4_3_u08_r1_network.node[1].content_store 	decision_yes[1] 	1197
scalar tree_4_3_u08_r1_network.node[1].content_store 	decision_no[1] 	115379
scalar tree_4_3_u08_r1_network.node[1].content_store 	decision_ratio[1] 	0.010267979687071
scalar tree_4_3_u08_r1_network.node[2].core_layer 	interests[2] 	102971
scalar tree_4_3_u08_r1_network.node[2].core_layer 	data[2] 	100079
scalar tree_4_3_u08_r1_network.node[2].content_store 	p_hit[2] 	0.028066154548368
scalar tree_4_3_u08_r1_network.node[2].content_store 	hits[2] 	2890
scalar tree_4_3_u08_r1_network.node[2].content_store 	misses[2] 	100081
scalar tree_4_3_u08_r1_network.node[2].content_store 	decision_yes[2] 	982
scalar tree_4_3_u08_r1_network.node[2].content_store 	decision_no[2] 	99097
scalar tree_4_3_u08_r1_network.node[2].content_store 	decision_ratio[2] 	0.0098122483238242
scalar tree_4_3_u08_r1_network.node[3].core_layer 	interests[3] 	8682
scalar tree_4_3_u08_r1_network.node[3].core_layer 	data[3] 	8347
scalar tree_4_3_u08_r1_network.node[3].content_store 	p_hit[3] 	0.038585579359595
scalar tree_4_3_u08_r1_network.node[3].content_store 	hits[3] 	335
scalar tree_4_3_u08_r1_network.node[3].content_store 	misses[3] 	8347
scalar tree_4_3_u08_r1_network.node[3].content_store 	decision_yes[3] 	81
scalar tree_4_3_u08_r1_network.node[3].content_store 	decision_no[3] 	8266
scalar tree_4_3_u08_r1_network.node[3].content_store 	decision_ratio[3] 	0.0097040853001078
scalar tree_4_3_u08_r1_network.node[4].core_layer 	interests[4] 	45285
scalar tree_4_3_u08_r1_network.node[4].core_layer 	data[4] 	42999
scalar tree_4_3_u08_r1_network.node[4].content_store 	p_hit[4] 	0.050436126752788
scalar tree_4_3_u08_r1_network.node[4].content_store 	hits[4] 	2284
scalar tree_4_3_u08_r1_network.node[4].content_store 	misses[4] 	43001
scalar tree_4_3_u08_r1_network.node[4].content_store 	decision_yes[4] 	456
scalar tree_4_3_u08_r1_network.node[4].content_store 	decision_no[4] 	42543
scalar tree_4_3_u08_r1_network.node[4].content_store 	decision_ratio[4] 	0.010604897788321
scalar tree_4_3_u08_r1_network.node[5].core_layer 	interests[5] 	18044
scalar tree_4_3_u08_r1_network.node[5].core_layer 	data[5] 	16929
scalar tree_4_3_u08_r1_network.node[5].content_store 	p_hit[5] 	0.061793393925959
scalar tree_4_3_u08_r1_network.node[5].content_store 	hits[5] 	1115
scalar tree_4_3_u08_r1_network.node[5].content_store 	misses[5] 	16929
scalar tree_4_3_u08_r1_network.node[5].content_store 	decision_yes[5] 	155
scalar tree_4_3_u08_r1_network.node[5].content_store 	decision_no[5] 	16774
scalar tree_4_3_u08_r1_network.node[5].content_store 	decision_ratio[5] 	0.0091558863488688
scalar tree_4_3_u08_r1_network.node[6].core_layer 	interests[6] 	18188
scalar tree_4_3_u08_r1_network.node[6].core_layer 	data[6] 	17025
scalar tree_4_3_u08_r1_network.node[6].content_store 	p_hit[6] 	0.063943259291841
scalar tree_4_3_u08_r1_network.node[6].content_store 	hits[6] 	1163
scalar tree_4_3_u08_r1_network.node[6].content_store 	misses[6] 	17025
scalar tree_4_3_u08_r1_network.node[6].content_store 	decision_yes[6] 	169
scalar tree_4_3_u08_r1_network.node[6].content_store 	decision_no[6] 	16856
scalar tree_4_3_u08_r1_network.node[6].content_store 	decision_ratio[6] 	0.0099265785609398
scalar tree_4_3_u08_r1_network.node[7].core_layer 	interests[7] 	45260
scalar tree_4_3_u08_r1_network.node[7].core_layer 	data[7] 	42915
scalar tree_4_3_u08_r1_network.node[7].content_store 	p_hit[7] 	0.051767565178966
scalar tree_4_3_u08_r1_network.node[7].content_store 	hits[7] 	2343
scalar tree_4_3_u08_r1_network.node[7].content_store 	misses[7] 	42917
scalar tree_4_3_u08_r1_network.node[7].content_store 	decision_yes[7] 	444
scalar tree_4_3_u08_r1_network.node[7].content_store 	decision_no[7] 	42471
scalar tree_4_3_u08_r1_network.node[7].content_store 	decision_ratio[7] 	0.010346032855645
scalar tree_4_3_u08_r1_network.node[8].core_layer 	interests[8] 	27178
scalar tree_4_3_u08_r1_network.node[8].core_layer 	data[8] 	25609
scalar tree_4_3_u08_r1_network.node[8].content_store 	p_hit[8] 	0.057730517330194
scalar tree_4_3_u08_r1_network.node[8].content_store 	hits[8] 	1569
scalar tree_4_3_u08_r1_network.node[8].content_store 	misses[8] 	25609
scalar tree_4_3_u08_r1_network.node[8].content_store 	decision_yes[8] 	248
scalar tree_4_3_u08_r1_network.node[8].content_store 	decision_no[8] 	25361
scalar tree_4_3_u08_r1_network.node[8].content_store 	decision_ratio[8] 	0.0096840954351986
scalar tree_4_3_u08_r1_network.node[9].core_layer 	interests[9] 	9251
scalar tree_4_3_u08_r1_network.node[9].core_layer 	data[9] 	8688
scalar tree_4_3_u08_r1_network.node[9].content_store 	p_hit[9] 	0.060858285590747
scalar tree_4_3_u08_r1_network.node[9].content_store 	hits[9] 	563
scalar tree_4_3_u08_r1_network.node[9].content_store 	misses[9] 	8688
scalar tree_4_3_u08_r1_network.node[9].content_store 	decision_yes[9] 	82
scalar tree_4_3_u08_r1_network.node[9].content_store 	decision_no[9] 	8606
scalar tree_4_3_u08_r1_network.node[9].content_store 	decision_ratio[9] 	0.0094383057090239
scalar tree_4_3_u08_r1_network.node[10].core_layer 	interests[10] 	45208
scalar tree_4_3_u08_r1_network.node[10].core_layer 	data[10] 	43090
scalar tree_4_3_u08_r1_network.node[10].content_store 	p_hit[10] 	0.04685011502389
scalar tree_4_3_u08_r1_network.node[10].content_store 	hits[10] 	2118
scalar tree_4_3_u08_r1_network.node[10].content_store 	misses[10] 	43090
scalar tree_4_3_u08_r1_network.node[10].content_store 	decision_yes[10] 	445
scalar tree_4_3_u08_r1_network.node[10].content_store 	decision_no[10] 	42645
scalar tree_4_3_u08_r1_network.node[10].content_store 	decision_ratio[10] 	0.010327222093293
scalar tree_4_3_u08_r1_network.node[11].core_layer 	interests[11] 	27444
scalar tree_4_3_u08_r1_network.node[11].core_layer 	data[11] 	25760
scalar tree_4_3_u08_r1_network.node[11].content_store 	p_hit[11] 	0.061397755429238
scalar tree_4_3_u08_r1_network.node[11].content_store 	hits[11] 	1685
scalar tree_4_3_u08_r1_network.node[11].content_store 	misses[11] 	25759
scalar tree_4_3_u08_r1_network.node[11].content_store 	decision_yes[11] 	279
scalar tree_4_3_u08_r1_network.node[11].content_store 	decision_no[11] 	25481
scalar tree_4_3_u08_r1_network.node[11].content_store 	decision_ratio[11] 	0.010830745341615
scalar tree_4_3_u08_r1_network.node[12].core_layer 	interests[12] 	9096
scalar tree_4_3_u08_r1_network.node[12].core_layer 	data[12] 	8682
scalar tree_4_3_u08_r1_network.node[12].content_store 	p_hit[12] 	0.045514511873351
scalar tree_4_3_u08_r1_network.node[12].content_store 	hits[12] 	414
scalar tree_4_3_u08_r1_network.node[12].content_store 	misses[12] 	8682
scalar tree_4_3_u08_r1_network.node[12].content_store 	decision_yes[12] 	75
scalar tree_4_3_u08_r1_network.node[12].content_store 	decision_no[12] 	8607
scalar tree_4_3_u08_r1_network.node[12].content_store 	decision_ratio[12] 	0.0086385625431928
scalar tree_4_3_u08_r1_network.node[13].core_layer 	interests[13] 	11728
scalar tree_4_3_u08_r1_network.node[13].core_layer 	data[13] 	8664
scalar tree_4_3_u08_r1_network.node[13].content_store 	p_hit[13] 	0.2612551159618
scalar tree_4_3_u08_r1_network.node[13].content_store 	hits[13] 	3064
scalar tree_4_3_u08_r1_network.node[13].content_store 	misses[13] 	8664
scalar tree_4_3_u08_r1_network.node[13].content_store 	decision_yes[13] 	96
scalar tree_4_3_u08_r1_network.node[13].content_store 	decision_no[13] 	8568
scalar tree_4_3_u08_r1_network.node[13].content_store 	decision_ratio[13] 	0.011080332409972
scalar tree_4_3_u08_r1_network.node[14].core_layer 	interests[14] 	12067
scalar tree_4_3_u08_r1_network.node[14].core_layer 	data[14] 	9212
scalar tree_4_3_u08_r1_network.node[14].content_store 	p_hit[14] 	0.23651280351372
scalar tree_4_3_u08_r1_network.node[14].content_store 	hits[14] 	2854
scalar tree_4_3_u08_r1_network.node[14].content_store 	misses[14] 	9213
scalar tree_4_3_u08_r1_network.node[14].content_store 	decision_yes[14] 	111
scalar tree_4_3_u08_r1_network.node[14].content_store 	decision_no[14] 	9101
scalar tree_4_3_u08_r1_network.node[14].content_store 	decision_ratio[14] 	0.012049500651324
scalar tree_4_3_u08_r1_network.node[15].core_layer 	interests[15] 	11942
scalar tree_4_3_u08_r1_network.node[15].core_layer 	data[15] 	8976
scalar tree_4_3_u08_r1_network.node[15].content_store 	p_hit[15] 	0.24828336961983
scalar tree_4_3_u08_r1_network.node[15].content_store 	hits[15] 	2965
scalar tree_4_3_u08_r1_network.node[15].content_store 	misses[15] 	8977
scalar tree_4_3_u08_r1_network.node[15].content_store 	decision_yes[15] 	86
scalar tree_4_3_u08_r1_network.node[15].content_store 	decision_no[15] 	8890
scalar tree_4_3_u08_r1_network.node[15].content_store 	decision_ratio[15] 	0.0095811051693405
scalar tree_4_3_u08_r1_network.node[16].core_layer 	interests[16] 	11947
scalar tree_4_3_u08_r1_network.node[16].core_layer 	data[16] 	9213
scalar tree_4_3_u08_r1_network.node[16].content_store 	p_hit[16] 	0.22884406127061
scalar tree_4_3_u08_r1_network.node[16].content_store 	hits[16] 	2734
scalar tree_4_3_u08_r1_network.node[16].content_store 	misses[16] 	9213
scalar tree_4_3_u08_r1_network.node[16].content_store 	decision_yes[16] 	74
scalar tree_4_3_u08_r1_network.node[16].content_store 	decision_no[16] 	9139
scalar tree_4_3_u08_r1_network.node[16].content_store 	decision_ratio[16] 	0.0080321285140562
scalar tree_4_3_u08_r1_network.node[17].core_layer 	interests[17] 	11828
scalar tree_4_3_u08_r1_network.node[17].core_layer 	data[17] 	8988
scalar tree_4_3_u08_r1_network.node[17].content_store 	p_hit[17] 	0.2401082177883
scalar tree_4_3_u08_r1_network.node[17].content_store 	hits[17] 	2840
scalar tree_4_3_u08_r1_network.node[17].content_store 	misses[17] 	8988
scalar tree_4_3_u08_r1_network.node[17].content_store 	decision_yes[17] 	85
scalar tree_4_3_u08_r1_network.node[17].content_store 	decision_no[17] 	8903
scalar tree_4_3_u08_r1_network.node[17].content_store 	decision_ratio[17] 	0.0094570538495772
scalar tree_4_3_u08_r1_network.node[18].core_layer 	interests[18] 	11930
scalar tree_4_3_u08_r1_network.node[18].core_layer 	data[18] 	9056
scalar tree_4_3_u08_r1_network.node[18].content_store 	p_hit[18] 	0.24082145850796
scalar tree_4_3_u08_r1_network.node[18].content_store 	hits[18] 	2873
scalar tree_4_3_u08_r1_network.node[18].content_store 	misses[18] 	9057
scalar tree_4_3_u08_r1_network.node[18].content_store 	decision_yes[18] 	80
scalar tree_4_3_u08_r1_network.node[18].content_store 	decision_no[18] 	8976
scalar tree_4_3_u08_r1_network.node[18].content_store 	decision_ratio[18] 	0.0088339222614841
scalar tree_4_3_u08_r1_network.node[19].core_layer 	interests[19] 	12101
scalar tree_4_3_u08_r1_network.node[19].core_layer 	data[19] 	9221
scalar tree_4_3_u08_r1_network.node[19].content_store 	p_hit[19] 	0.23807949756218
scalar tree_4_3_u08_r1_network.node[19].content_store 	hits[19] 	2881
scalar tree_4_3_u08_r1_network.node[19].content_store 	misses[19] 	9220
scalar tree_4_3_u08_r1_network.node[19].content_store 	decision_yes[19] 	91
scalar tree_4_3_u08_r1_network.node[19].content_store 	decision_no[19] 	9130
scalar tree_4_3_u08_r1_network.node[19].content_store 	decision_ratio[19] 	0.0098687777898276
scalar tree_4_3_u08_r1_network.node[20].core_layer 	interests[20] 	12089
scalar tree_4_3_u08_r1_network.node[20].core_layer 	data[20] 	9220
scalar tree_4_3_u08_r1_network.node[20].content_store 	p_hit[20] 	0.23724046653983
scalar tree_4_3_u08_r1_network.node[20].content_store 	hits[20] 	2868
scalar tree_4_3_u08_r1_network.node[20].content_store 	misses[20] 	9221
scalar tree_4_3_u08_r1_network.node[20].content_store 	decision_yes[20] 	81
scalar tree_4_3_u08_r1_network.node[20].content_store 	decision_no[20] 	9139
scalar tree_4_3_u08_r1_network.node[20].content_store 	decision_ratio[20] 	0.0087852494577007
scalar tree_4_3_u08_r1_network.node[21].core_layer 	interests[21] 	12091
scalar tree_4_3_u08_r1_network.node[21].core_layer 	data[21] 	8968
scalar tree_4_3_u08_r1_network.node[21].content_store 	p_hit[21] 	0.25820858489786
scalar tree_4_3_u08_r1_network.node[21].content_store 	hits[21] 	3122
scalar tree_4_3_u08_r1_network.node[21].content_store 	misses[21] 	8969
scalar tree_4_3_u08_r1_network.node[21].content_store 	decision_yes[21] 	79
scalar tree_4_3_u08_r1_network.node[21].content_store 	decision_no[21] 	8889
scalar tree_4_3_u08_r1_network.node[21].content_store 	decision_ratio[21] 	0.0088090990187333
scalar tree_4_3_u08_r1_network.node[22].core_layer 	interests[22] 	11962
scalar tree_4_3_u08_r1_network.node[22].core_layer 	data[22] 	9170
scalar tree_4_3_u08_r1_network.node[22].content_store 	p_hit[22] 	0.23340578498579
scalar tree_4_3_u08_r1_network.node[22].content_store 	hits[22] 	2792
scalar tree_4_3_u08_r1_network.node[22].content_store 	misses[22] 	9170
scalar tree_4_3_u08_r1_network.node[22].content_store 	decision_yes[22] 	86
scalar tree_4_3_u08_r1_network.node[22].content_store 	decision_no[22] 	9084
scalar tree_4_3_u08_r1_network.node[22].content_store 	decision_ratio[22] 	0.0093784078516903
scalar tree_4_3_u08_r1_network.node[23].core_layer 	interests[23] 	12010
scalar tree_4_3_u08_r1_network.node[23].core_layer 	data[23] 	9078
scalar tree_4_3_u08_r1_network.node[23].content_store 	p_hit[23] 	0.24412989175687
scalar tree_4_3_u08_r1_network.node[23].content_store 	hits[23] 	2932
scalar tree_4_3_u08_r1_network.node[23].content_store 	misses[23] 	9078
scalar tree_4_3_u08_r1_network.node[23].content_store 	decision_yes[23] 	87
scalar tree_4_3_u08_r1_network.node[23].content_store 	decision_no[23] 	8991
scalar tree_4_3_u08_r1_network.node[23].content_store 	decision_ratio[23] 	0.0095836087243886
scalar tree_4_3_u08_r1_network.node[24].core_layer 	interests[24] 	12038
scalar tree_4_3_u08_r1_network.node[24].core_layer 	data[24] 	8994
scalar tree_4_3_u08_r1_network.node[24].content_store 	p_hit[24] 	0.25286592457219
scalar tree_4_3_u08_r1_network.node[24].content_store 	hits[24] 	3044
scalar tree_4_3_u08_r1_network.node[24].content_store 	misses[24] 	8994
scalar tree_4_3_u08_r1_network.node[24].content_store 	decision_yes[24] 	94
scalar tree_4_3_u08_r1_network.node[24].content_store 	decision_no[24] 	8900
scalar tree_4_3_u08_r1_network.node[24].content_store 	decision_ratio[24] 	0.010451412052479
scalar tree_4_3_u08_r1_network.node[25].core_layer 	interests[25] 	12017
scalar tree_4_3_u08_r1_network.node[25].core_layer 	data[25] 	9084
scalar tree_4_3_u08_r1_network.node[25].content_store 	p_hit[25] 	0.24407089955896
scalar tree_4_3_u08_r1_network.node[25].content_store 	hits[25] 	2933
scalar tree_4_3_u08_r1_network.node[25].content_store 	misses[25] 	9084
scalar tree_4_3_u08_r1_network.node[25].content_store 	decision_yes[25] 	96
scalar tree_4_3_u08_r1_network.node[25].content_store 	decision_no[25] 	8988
scalar tree_4_3_u08_r1_network.node[25].content_store 	decision_ratio[25] 	0.010568031704095
scalar tree_4_3_u08_r1_network.node[26].core_layer 	interests[26] 	11893
scalar tree_4_3_u08_r1_network.node[26].core_layer 	data[26] 	8960
scalar tree_4_3_u08_r1_network.node[26].content_store 	p_hit[26] 	0.24661565626839
scalar tree_4_3_u08_r1_network.node[26].content_store 	hits[26] 	2933
scalar tree_4_3_u08_r1_network.node[26].content_store 	misses[26] 	8960
scalar tree_4_3_u08_r1_network.node[26].content_store 	decision_yes[26] 	91
scalar tree_4_3_u08_r1_network.node[26].content_store 	decision_no[26] 	8869
scalar tree_4_3_u08_r1_network.node[26].content_store 	decision_ratio[26] 	0.01015625
scalar tree_4_3_u08_r1_network.node[27].core_layer 	interests[27] 	12159
scalar tree_4_3_u08_r1_network.node[27].core_layer 	data[27] 	9263
scalar tree_4_3_u08_r1_network.node[27].content_store 	p_hit[27] 	0.2381774817008
scalar tree_4_3_u08_r1_network.node[27].content_store 	hits[27] 	2896
scalar tree_4_3_u08_r1_network.node[27].content_store 	misses[27] 	9263
scalar tree_4_3_u08_r1_network.node[27].content_store 	decision_yes[27] 	109
scalar tree_4_3_u08_r1_network.node[27].content_store 	decision_no[27] 	9154
scalar tree_4_3_u08_r1_network.node[27].content_store 	decision_ratio[27] 	0.011767246032603
scalar tree_4_3_u08_r1_network.node[28].core_layer 	interests[28] 	11808
scalar tree_4_3_u08_r1_network.node[28].core_layer 	data[28] 	8934
scalar tree_4_3_u08_r1_network.node[28].content_store 	p_hit[28] 	0.24339430894309
scalar tree_4_3_u08_r1_network.node[28].content_store 	hits[28] 	2874
scalar tree_4_3_u08_r1_network.node[28].content_store 	misses[28] 	8934
scalar tree_4_3_u08_r1_network.node[28].content_store 	decision_yes[28] 	66
scalar tree_4_3_u08_r1_network.node[28].content_store 	decision_no[28] 	8868
scalar tree_4_3_u08_r1_network.node[28].content_store 	decision_ratio[28] 	0.0073875083948959
scalar tree_4_3_u08_r1_network.node[29].core_layer 	interests[29] 	11846
scalar tree_4_3_u08_r1_network.node[29].core_layer 	data[29] 	8955
scalar tree_4_3_u08_r1_network.node[29].content_store 	p_hit[29] 	0.2440486240081
scalar tree_4_3_u08_r1_network.node[29].content_store 	hits[29] 	2891
scalar tree_4_3_u08_r1_network.node[29].content_store 	misses[29] 	8955
scalar tree_4_3_u08_r1_network.node[29].content_store 	decision_yes[29] 	81
scalar tree_4_3_u08_r1_network.node[29].content_store 	decision_no[29] 	8874
scalar tree_4_3_u08_r1_network.node[29].content_store 	decision_ratio[29] 	0.0090452261306533
scalar tree_4_3_u08_r1_network.node[30].core_layer 	interests[30] 	12098
scalar tree_4_3_u08_r1_network.node[30].core_layer 	data[30] 	9251
scalar tree_4_3_u08_r1_network.node[30].content_store 	p_hit[30] 	0.23532815341379
scalar tree_4_3_u08_r1_network.node[30].content_store 	hits[30] 	2847
scalar tree_4_3_u08_r1_network.node[30].content_store 	misses[30] 	9251
scalar tree_4_3_u08_r1_network.node[30].content_store 	decision_yes[30] 	69
scalar tree_4_3_u08_r1_network.node[30].content_store 	decision_no[30] 	9182
scalar tree_4_3_u08_r1_network.node[30].content_store 	decision_ratio[30] 	0.0074586531185818
scalar tree_4_3_u08_r1_network.node[31].core_layer 	interests[31] 	12056
scalar tree_4_3_u08_r1_network.node[31].core_layer 	data[31] 	9031
scalar tree_4_3_u08_r1_network.node[31].content_store 	p_hit[31] 	0.25091240875912
scalar tree_4_3_u08_r1_network.node[31].content_store 	hits[31] 	3025
scalar tree_4_3_u08_r1_network.node[31].content_store 	misses[31] 	9031
scalar tree_4_3_u08_r1_network.node[31].content_store 	decision_yes[31] 	92
scalar tree_4_3_u08_r1_network.node[31].content_store 	decision_no[31] 	8939
scalar tree_4_3_u08_r1_network.node[31].content_store 	decision_ratio[31] 	0.01018713320784
scalar tree_4_3_u08_r1_network.node[32].core_layer 	interests[32] 	11984
scalar tree_4_3_u08_r1_network.node[32].core_layer 	data[32] 	9013
scalar tree_4_3_u08_r1_network.node[32].content_store 	p_hit[32] 	0.24791388518024
scalar tree_4_3_u08_r1_network.node[32].content_store 	hits[32] 	2971
scalar tree_4_3_u08_r1_network.node[32].content_store 	misses[32] 	9013
scalar tree_4_3_u08_r1_network.node[32].content_store 	decision_yes[32] 	86
scalar tree_4_3_u08_r1_network.node[32].content_store 	decision_no[32] 	8927
scalar tree_4_3_u08_r1_network.node[32].content_store 	decision_ratio[32] 	0.0095417729945634
scalar tree_4_3_u08_r1_network.node[33].core_layer 	interests[33] 	12107
scalar tree_4_3_u08_r1_network.node[33].core_layer 	data[33] 	9123
scalar tree_4_3_u08_r1_network.node[33].content_store 	p_hit[33] 	0.24646898488478
scalar tree_4_3_u08_r1_network.node[33].content_store 	hits[33] 	2984
scalar tree_4_3_u08_r1_network.node[33].content_store 	misses[33] 	9123
scalar tree_4_3_u08_r1_network.node[33].content_store 	decision_yes[33] 	102
scalar tree_4_3_u08_r1_network.node[33].content_store 	decision_no[33] 	9021
scalar tree_4_3_u08_r1_network.node[33].content_store 	decision_ratio[33] 	0.0111805327195
scalar tree_4_3_u08_r1_network.node[34].core_layer 	interests[34] 	11888
scalar tree_4_3_u08_r1_network.node[34].core_layer 	data[34] 	9001
scalar tree_4_3_u08_r1_network.node[34].content_store 	p_hit[34] 	0.24293405114401
scalar tree_4_3_u08_r1_network.node[34].content_store 	hits[34] 	2888
scalar tree_4_3_u08_r1_network.node[34].content_store 	misses[34] 	9000
scalar tree_4_3_u08_r1_network.node[34].content_store 	decision_yes[34] 	100
scalar tree_4_3_u08_r1_network.node[34].content_store 	decision_no[34] 	8901
scalar tree_4_3_u08_r1_network.node[34].content_store 	decision_ratio[34] 	0.011109876680369
scalar tree_4_3_u08_r1_network.node[35].core_layer 	interests[35] 	11837
scalar tree_4_3_u08_r1_network.node[35].core_layer 	data[35] 	9239
scalar tree_4_3_u08_r1_network.node[35].content_store 	p_hit[35] 	0.21948128748838
scalar tree_4_3_u08_r1_network.node[35].content_store 	hits[35] 	2598
scalar tree_4_3_u08_r1_network.node[35].content_store 	misses[35] 	9239
scalar tree_4_3_u08_r1_network.node[35].content_store 	decision_yes[35] 	91
scalar tree_4_3_u08_r1_network.node[35].content_store 	decision_no[35] 	9148
scalar tree_4_3_u08_r1_network.node[35].content_store 	decision_ratio[35] 	0.009849550817188
scalar tree_4_3_u08_r1_network.node[36].core_layer 	interests[36] 	12166
scalar tree_4_3_u08_r1_network.node[36].core_layer 	data[36] 	9203
scalar tree_4_3_u08_r1_network.node[36].content_store 	p_hit[36] 	0.24354759164886
scalar tree_4_3_u08_r1_network.node[36].content_store 	hits[36] 	2963
scalar tree_4_3_u08_r1_network.node[36].content_store 	misses[36] 	9203
scalar tree_4_3_u08_r1_network.node[36].content_store 	decision_yes[36] 	95
scalar tree_4_3_u08_r1_network.node[36].content_store 	decision_no[36] 	9108
scalar tree_4_3_u08_r1_network.node[36].content_store 	decision_ratio[36] 	0.010322720851896
scalar tree_4_3_u08_r1_network.node[37].core_layer 	interests[37] 	11984
scalar tree_4_3_u08_r1_network.node[37].core_layer 	data[37] 	9040
scalar tree_4_3_u08_r1_network.node[37].content_store 	p_hit[37] 	0.2456608811749
scalar tree_4_3_u08_r1_network.node[37].content_store 	hits[37] 	2944
scalar tree_4_3_u08_r1_network.node[37].content_store 	misses[37] 	9040
scalar tree_4_3_u08_r1_network.node[37].content_store 	decision_yes[37] 	100
scalar tree_4_3_u08_r1_network.node[37].content_store 	decision_no[37] 	8940
scalar tree_4_3_u08_r1_network.node[37].content_store 	decision_ratio[37] 	0.011061946902655
scalar tree_4_3_u08_r1_network.node[38].core_layer 	interests[38] 	11932
scalar tree_4_3_u08_r1_network.node[38].core_layer 	data[38] 	9003
scalar tree_4_3_u08_r1_network.node[38].content_store 	p_hit[38] 	0.24555816292323
scalar tree_4_3_u08_r1_network.node[38].content_store 	hits[38] 	2930
scalar tree_4_3_u08_r1_network.node[38].content_store 	misses[38] 	9002
scalar tree_4_3_u08_r1_network.node[38].content_store 	decision_yes[38] 	82
scalar tree_4_3_u08_r1_network.node[38].content_store 	decision_no[38] 	8921
scalar tree_4_3_u08_r1_network.node[38].content_store 	decision_ratio[38] 	0.0091080750860824
scalar tree_4_3_u08_r1_network.node[39].core_layer 	interests[39] 	12057
scalar tree_4_3_u08_r1_network.node[39].core_layer 	data[39] 	9096
scalar tree_4_3_u08_r1_network.node[39].content_store 	p_hit[39] 	0.24558347847723
scalar tree_4_3_u08_r1_network.node[39].content_store 	hits[39] 	2961
scalar tree_4_3_u08_r1_network.node[39].content_store 	misses[39] 	9096
scalar tree_4_3_u08_r1_network.node[39].content_store 	decision_yes[39] 	101
scalar tree_4_3_u08_r1_network.node[39].content_store 	decision_no[39] 	8995
scalar tree_4_3_u08_r1_network.node[39].content_store 	decision_ratio[39] 	0.011103781882146
scalar tree_4_3_u08_r1_network.client[13] 	hdistance[13] 	2.8192360163711
scalar tree_4_3_u08_r1_network.client[13] 	downloads[13] 	11728
scalar tree_4_3_u08_r1_network.client[13] 	avg_time[13] 	0.004286616946
scalar tree_4_3_u08_r1_network.client[14] 	hdistance[14] 	2.8783358196585
scalar tree_4_3_u08_r1_network.client[14] 	downloads[14] 	12066
scalar tree_4_3_u08_r1_network.client[14] 	avg_time[14] 	0.004383604705
scalar tree_4_3_u08_r1_network.client[15] 	hdistance[15] 	2.8457415626832
scalar tree_4_3_u08_r1_network.client[15] 	downloads[15] 	11941
scalar tree_4_3_u08_r1_network.client[15] 	avg_time[15] 	0.004327121857
scalar tree_4_3_u08_r1_network.client[16] 	hdistance[16] 	2.8656566502051
scalar tree_4_3_u08_r1_network.client[16] 	downloads[16] 	11947
scalar tree_4_3_u08_r1_network.client[16] 	avg_time[16] 	0.004370679122
scalar tree_4_3_u08_r1_network.client[17] 	hdistance[17] 	2.8384342238755
scalar tree_4_3_u08_r1_network.client[17] 	downloads[17] 	11828
scalar tree_4_3_u08_r1_network.client[17] 	avg_time[17] 	0.004322452269
scalar tree_4_3_u08_r1_network.client[18] 	hdistance[18] 	2.8522927319976
scalar tree_4_3_u08_r1_network.client[18] 	downloads[18] 	11929
scalar tree_4_3_u08_r1_network.client[18] 	avg_time[18] 	0.00434237136
scalar tree_4_3_u08_r1_network.client[19] 	hdistance[19] 	2.8713435795736
scalar tree_4_3_u08_r1_network.client[19] 	downloads[19] 	12102
scalar tree_4_3_u08_r1_network.client[19] 	avg_time[19] 	0.004373562732
scalar tree_4_3_u08_r1_network.client[20] 	hdistance[20] 	2.8407511581734
scalar tree_4_3_u08_r1_network.client[20] 	downloads[20] 	12088
scalar tree_4_3_u08_r1_network.client[20] 	avg_time[20] 	0.004324950236
scalar tree_4_3_u08_r1_network.client[21] 	hdistance[21] 	2.794623655914
scalar tree_4_3_u08_r1_network.client[21] 	downloads[21] 	12090
scalar tree_4_3_u08_r1_network.client[21] 	avg_time[21] 	0.004248982895
scalar tree_4_3_u08_r1_network.client[22] 	hdistance[22] 	2.867998662431
scalar tree_4_3_u08_r1_network.client[22] 	downloads[22] 	11962
scalar tree_4_3_u08_r1_network.client[22] 	avg_time[22] 	0.004371339583
scalar tree_4_3_u08_r1_network.client[23] 	hdistance[23] 	2.8515403830142
scalar tree_4_3_u08_r1_network.client[23] 	downloads[23] 	12010
scalar tree_4_3_u08_r1_network.client[23] 	avg_time[23] 	0.004340928057
scalar tree_4_3_u08_r1_network.client[24] 	hdistance[24] 	2.8219803954145
scalar tree_4_3_u08_r1_network.client[24] 	downloads[24] 	12038
scalar tree_4_3_u08_r1_network.client[24] 	avg_time[24] 	0.004293132712
scalar tree_4_3_u08_r1_network.client[25] 	hdistance[25] 	2.8546226179579
scalar tree_4_3_u08_r1_network.client[25] 	downloads[25] 	12017
scalar tree_4_3_u08_r1_network.client[25] 	avg_time[25] 	0.004344009634
scalar tree_4_3_u08_r1_network.client[26] 	hdistance[26] 	2.8352812578828
scalar tree_4_3_u08_r1_network.client[26] 	downloads[26] 	11893
scalar tree_4_3_u08_r1_network.client[26] 	avg_time[26] 	0.004313458701
scalar tree_4_3_u08_r1_network.client[27] 	hdistance[27] 	2.8491652274036
scalar tree_4_3_u08_r1_network.client[27] 	downloads[27] 	12159
scalar tree_4_3_u08_r1_network.client[27] 	avg_time[27] 	0.004338676148
scalar tree_4_3_u08_r1_network.client[28] 	hdistance[28] 	2.8453590785908
scalar tree_4_3_u08_r1_network.client[28] 	downloads[28] 	11808
scalar tree_4_3_u08_r1_network.client[28] 	avg_time[28] 	0.004331458022
scalar tree_4_3_u08_r1_network.client[29] 	hdistance[29] 	2.8617254769542
scalar tree_4_3_u08_r1_network.client[29] 	downloads[29] 	11846
scalar tree_4_3_u08_r1_network.client[29] 	avg_time[29] 	0.004350832767
scalar tree_4_3_u08_r1_network.client[30] 	hdistance[30] 	2.8617953380724
scalar tree_4_3_u08_r1_network.client[30] 	downloads[30] 	12098
scalar tree_4_3_u08_r1_network.client[30] 	avg_time[30] 	0.004359064587
scalar tree_4_3_u08_r1_network.client[31] 	hdistance[31] 	2.8425680159257
scalar tree_4_3_u08_r1_network.client[31] 	downloads[31] 	12056
scalar tree_4_3_u08_r1_network.client[31] 	avg_time[31] 	0.004323487369
scalar tree_4_3_u08_r1_network.client[32] 	hdistance[32] 	2.8450433911882
scalar tree_4_3_u08_r1_network.client[32] 	downloads[32] 	11984
scalar tree_4_3_u08_r1_network.client[32] 	avg_time[32] 	0.004330670517
scalar tree_4_3_u08_r1_network.client[33] 	hdistance[33] 	2.8300156934005
scalar tree_4_3_u08_r1_network.client[33] 	downloads[33] 	12107
scalar tree_4_3_u08_r1_network.client[33] 	avg_time[33] 	0.004309900345
scalar tree_4_3_u08_r1_network.client[34] 	hdistance[34] 	2.866431154849
scalar tree_4_3_u08_r1_network.client[34] 	downloads[34] 	11889
scalar tree_4_3_u08_r1_network.client[34] 	avg_time[34] 	0.004361002992
scalar tree_4_3_u08_r1_network.client[35] 	hdistance[35] 	2.8980315958435
scalar tree_4_3_u08_r1_network.client[35] 	downloads[35] 	11837
scalar tree_4_3_u08_r1_network.client[35] 	avg_time[35] 	0.004415473946
scalar tree_4_3_u08_r1_network.client[36] 	hdistance[36] 	2.8369225710998
scalar tree_4_3_u08_r1_network.client[36] 	downloads[36] 	12166
scalar tree_4_3_u08_r1_network.client[36] 	avg_time[36] 	0.004319174739
scalar tree_4_3_u08_r1_network.client[37] 	hdistance[37] 	2.8558077436582
scalar tree_4_3_u08_r1_network.client[37] 	downloads[37] 	11984
scalar tree_4_3_u08_r1_network.client[37] 	avg_time[37] 	0.004345791403
scalar tree_4_3_u08_r1_network.client[38] 	hdistance[38] 	2.8527612503143
scalar tree_4_3_u08_r1_network.client[38] 	downloads[38] 	11933
scalar tree_4_3_u08_r1_network.client[38] 	avg_time[38] 	0.004339115828
scalar tree_4_3_u08_r1_network.client[39] 	hdistance[39] 	2.8463133449448
scalar tree_4_3_u08_r1_network.client[39] 	downloads[39] 	12057
scalar tree_4_3_u08_r1_network.client[39] 	avg_time[39] 	0.004333579124
