version 2
run General-73-20160825-06:30:25-24543
attr D fix0.05
attr F nrr
attr R lru
attr a 0.9
attr configname General
attr datetime 20160825-06:30:25
attr experiment General
attr inifile hw5115/scenario_C/omnetp.ini
attr iterationvars "$net=dtelecom, $rep=9, $a=0.9, $F=nrr, $D=fix0.05, $R=lru, $window=60, $variance=0.05, $mytime=600"
attr iterationvars2 "$net=dtelecom, $rep=9, $a=0.9, $F=nrr, $D=fix0.05, $R=lru, $window=60, $variance=0.05, $mytime=600, $repetition=0"
attr measurement "$net=dtelecom, $rep=9, $a=0.9, $F=nrr, $D=fix0.05, $R=lru, $window=60, $variance=0.05, $mytime=600"
attr mytime 600
attr net dtelecom
attr network networks.${net=dtelecom}_network
attr processid 24543
attr rep 9
attr repetition 0
attr replication #0
attr resultdir results
attr runnumber 73
attr seedset 9
attr variance 0.05
attr window 60

scalar . 	a 	0.9
scalar . 	mytime 	600
scalar . 	rep 	9
scalar . 	variance 	0.05
scalar . 	window 	60
scalar dtelecom_network.content_distribution 	repo-0 	1
scalar dtelecom_network.content_distribution 	repo-1 	5
scalar dtelecom_network.content_distribution 	repo-2 	22
scalar dtelecom_network.content_distribution 	repo-3 	32
scalar dtelecom_network.content_distribution 	repo-4 	3
scalar dtelecom_network.content_distribution 	repo-5 	12
scalar dtelecom_network.content_distribution 	repo-6 	64
scalar dtelecom_network.content_distribution 	repo-7 	51
scalar dtelecom_network.content_distribution 	repo-8 	23
scalar dtelecom_network.content_distribution 	repo-9 	8
scalar dtelecom_network.content_distribution 	repo-10 	24
scalar dtelecom_network.content_distribution 	repo-11 	43
scalar dtelecom_network.content_distribution 	repo-12 	7
scalar dtelecom_network.content_distribution 	repo-13 	45
scalar dtelecom_network.content_distribution 	repo-14 	60
scalar dtelecom_network.content_distribution 	repo-15 	34
scalar dtelecom_network.content_distribution 	client-0 	46
scalar dtelecom_network.content_distribution 	client-1 	30
scalar dtelecom_network.content_distribution 	client-2 	8
scalar dtelecom_network.content_distribution 	client-3 	49
scalar dtelecom_network.content_distribution 	client-4 	66
scalar dtelecom_network.content_distribution 	client-5 	58
scalar dtelecom_network.content_distribution 	client-6 	32
scalar dtelecom_network.content_distribution 	client-7 	40
scalar dtelecom_network.content_distribution 	client-8 	42
scalar dtelecom_network.content_distribution 	client-9 	45
scalar dtelecom_network.content_distribution 	client-10 	33
scalar dtelecom_network.content_distribution 	client-11 	28
scalar dtelecom_network.content_distribution 	client-12 	3
scalar dtelecom_network.content_distribution 	client-13 	57
scalar dtelecom_network.content_distribution 	client-14 	50
scalar dtelecom_network.content_distribution 	client-15 	17
scalar dtelecom_network.content_distribution 	client-16 	59
scalar dtelecom_network.content_distribution 	client-17 	48
scalar dtelecom_network.content_distribution 	client-18 	23
scalar dtelecom_network.content_distribution 	client-19 	22
scalar dtelecom_network.content_distribution 	client-20 	67
scalar dtelecom_network.content_distribution 	client-21 	62
scalar dtelecom_network.content_distribution 	client-22 	56
scalar dtelecom_network.content_distribution 	client-23 	55
scalar dtelecom_network.content_distribution 	client-24 	53
scalar dtelecom_network.content_distribution 	client-25 	36
scalar dtelecom_network.content_distribution 	client-26 	51
scalar dtelecom_network.content_distribution 	client-27 	37
scalar dtelecom_network.content_distribution 	client-28 	54
scalar dtelecom_network.content_distribution 	client-29 	4
scalar dtelecom_network.content_distribution 	client-30 	31
scalar dtelecom_network.content_distribution 	client-31 	9
scalar dtelecom_network.content_distribution 	repo-0_card 	6357
scalar dtelecom_network.content_distribution 	repo-0_price 	0
scalar dtelecom_network.content_distribution 	repo-1_card 	6265
scalar dtelecom_network.content_distribution 	repo-1_price 	0
scalar dtelecom_network.content_distribution 	repo-2_card 	6375
scalar dtelecom_network.content_distribution 	repo-2_price 	0
scalar dtelecom_network.content_distribution 	repo-3_card 	6158
scalar dtelecom_network.content_distribution 	repo-3_price 	0
scalar dtelecom_network.content_distribution 	repo-4_card 	6159
scalar dtelecom_network.content_distribution 	repo-4_price 	0
scalar dtelecom_network.content_distribution 	repo-5_card 	6389
scalar dtelecom_network.content_distribution 	repo-5_price 	0
scalar dtelecom_network.content_distribution 	repo-6_card 	6324
scalar dtelecom_network.content_distribution 	repo-6_price 	0
scalar dtelecom_network.content_distribution 	repo-7_card 	6320
scalar dtelecom_network.content_distribution 	repo-7_price 	0
scalar dtelecom_network.content_distribution 	repo-8_card 	6094
scalar dtelecom_network.content_distribution 	repo-8_price 	0
scalar dtelecom_network.content_distribution 	repo-9_card 	6152
scalar dtelecom_network.content_distribution 	repo-9_price 	0
scalar dtelecom_network.content_distribution 	repo-10_card 	6306
scalar dtelecom_network.content_distribution 	repo-10_price 	0
scalar dtelecom_network.content_distribution 	repo-11_card 	6181
scalar dtelecom_network.content_distribution 	repo-11_price 	0
scalar dtelecom_network.content_distribution 	repo-12_card 	6224
scalar dtelecom_network.content_distribution 	repo-12_price 	0
scalar dtelecom_network.content_distribution 	repo-13_card 	6286
scalar dtelecom_network.content_distribution 	repo-13_price 	0
scalar dtelecom_network.content_distribution 	repo-14_card 	6172
scalar dtelecom_network.content_distribution 	repo-14_price 	0
scalar dtelecom_network.content_distribution 	repo-15_card 	6238
scalar dtelecom_network.content_distribution 	repo-15_price 	0
scalar dtelecom_network.statistics 	stabilization_time 	11327.1
scalar dtelecom_network.statistics 	p_hit 	0.28410927809917
scalar dtelecom_network.statistics 	interests 	12995.470588235
scalar dtelecom_network.statistics 	data 	7339.7058823529
scalar dtelecom_network.statistics 	hdistance 	1.8119662912667
scalar dtelecom_network.statistics 	avg_time 	0.024524951896
scalar dtelecom_network.statistics 	downloads 	384518
scalar dtelecom_network.statistics 	total_cost 	0
scalar dtelecom_network.statistics 	total_replicas 	100000
scalar dtelecom_network.statistics 	inner_hit 	0.48593563890377
scalar dtelecom_network.node[0].core_layer 	interests[0] 	0
scalar dtelecom_network.node[0].core_layer 	data[0] 	0
scalar dtelecom_network.node[0].core_layer 	repo_int[0] 	197667
scalar dtelecom_network.node[0].content_store 	p_hit[0] 	-nan
scalar dtelecom_network.node[0].content_store 	hits[0] 	0
scalar dtelecom_network.node[0].content_store 	misses[0] 	0
scalar dtelecom_network.node[0].content_store 	decision_yes[0] 	0
scalar dtelecom_network.node[0].content_store 	decision_no[0] 	0
scalar dtelecom_network.node[0].content_store 	decision_ratio[0] 	0
scalar dtelecom_network.node[1].core_layer 	interests[1] 	159148
scalar dtelecom_network.node[1].core_layer 	repo_load[1] 	16321
scalar dtelecom_network.node[1].core_layer 	data[1] 	138798
scalar dtelecom_network.node[1].content_store 	p_hit[1] 	0.025259506874105
scalar dtelecom_network.node[1].content_store 	hits[1] 	4020
scalar dtelecom_network.node[1].content_store 	misses[1] 	155128
scalar dtelecom_network.node[1].content_store 	decision_yes[1] 	7780
scalar dtelecom_network.node[1].content_store 	decision_no[1] 	147339
scalar dtelecom_network.node[1].content_store 	decision_ratio[1] 	0.050155042257879
scalar dtelecom_network.node[2].core_layer 	interests[2] 	6950
scalar dtelecom_network.node[2].core_layer 	data[2] 	3565
scalar dtelecom_network.node[2].content_store 	p_hit[2] 	0.48690647482014
scalar dtelecom_network.node[2].content_store 	hits[2] 	3384
scalar dtelecom_network.node[2].content_store 	misses[2] 	3566
scalar dtelecom_network.node[2].content_store 	decision_yes[2] 	169
scalar dtelecom_network.node[2].content_store 	decision_no[2] 	3396
scalar dtelecom_network.node[2].content_store 	decision_ratio[2] 	0.047405329593268
scalar dtelecom_network.node[3].core_layer 	interests[3] 	45687
scalar dtelecom_network.node[3].core_layer 	repo_load[3] 	12928
scalar dtelecom_network.node[3].core_layer 	data[3] 	19642
scalar dtelecom_network.node[3].content_store 	p_hit[3] 	0.28706196511043
scalar dtelecom_network.node[3].content_store 	hits[3] 	13115
scalar dtelecom_network.node[3].content_store 	misses[3] 	32572
scalar dtelecom_network.node[3].content_store 	decision_yes[3] 	1623
scalar dtelecom_network.node[3].content_store 	decision_no[3] 	30947
scalar dtelecom_network.node[3].content_store 	decision_ratio[3] 	0.049831132944427
scalar dtelecom_network.node[4].core_layer 	interests[4] 	55846
scalar dtelecom_network.node[4].core_layer 	data[4] 	41750
scalar dtelecom_network.node[4].content_store 	p_hit[4] 	0.25145937041149
scalar dtelecom_network.node[4].content_store 	hits[4] 	14043
scalar dtelecom_network.node[4].content_store 	misses[4] 	41803
scalar dtelecom_network.node[4].content_store 	decision_yes[4] 	2097
scalar dtelecom_network.node[4].content_store 	decision_no[4] 	39653
scalar dtelecom_network.node[4].content_store 	decision_ratio[4] 	0.05022754491018
scalar dtelecom_network.node[5].core_layer 	interests[5] 	15684
scalar dtelecom_network.node[5].core_layer 	repo_load[5] 	11853
scalar dtelecom_network.node[5].core_layer 	data[5] 	0
scalar dtelecom_network.node[5].content_store 	p_hit[5] 	0.24426166794185
scalar dtelecom_network.node[5].content_store 	hits[5] 	3831
scalar dtelecom_network.node[5].content_store 	misses[5] 	11853
scalar dtelecom_network.node[5].content_store 	decision_yes[5] 	626
scalar dtelecom_network.node[5].content_store 	decision_no[5] 	11227
scalar dtelecom_network.node[5].content_store 	decision_ratio[5] 	0.052813633679237
scalar dtelecom_network.node[6].core_layer 	interests[6] 	0
scalar dtelecom_network.node[6].core_layer 	data[6] 	0
scalar dtelecom_network.node[6].content_store 	p_hit[6] 	-nan
scalar dtelecom_network.node[6].content_store 	hits[6] 	0
scalar dtelecom_network.node[6].content_store 	misses[6] 	0
scalar dtelecom_network.node[6].content_store 	decision_yes[6] 	0
scalar dtelecom_network.node[6].content_store 	decision_no[6] 	0
scalar dtelecom_network.node[6].content_store 	decision_ratio[6] 	0
scalar dtelecom_network.node[7].core_layer 	interests[7] 	13038
scalar dtelecom_network.node[7].core_layer 	repo_load[7] 	11579
scalar dtelecom_network.node[7].core_layer 	data[7] 	0
scalar dtelecom_network.node[7].content_store 	p_hit[7] 	0.11190366620647
scalar dtelecom_network.node[7].content_store 	hits[7] 	1459
scalar dtelecom_network.node[7].content_store 	misses[7] 	11579
scalar dtelecom_network.node[7].content_store 	decision_yes[7] 	539
scalar dtelecom_network.node[7].content_store 	decision_no[7] 	11040
scalar dtelecom_network.node[7].content_store 	decision_ratio[7] 	0.046549788410053
scalar dtelecom_network.node[8].core_layer 	interests[8] 	25343
scalar dtelecom_network.node[8].core_layer 	repo_load[8] 	12391
scalar dtelecom_network.node[8].core_layer 	data[8] 	9451
scalar dtelecom_network.node[8].content_store 	p_hit[8] 	0.13806573807363
scalar dtelecom_network.node[8].content_store 	hits[8] 	3499
scalar dtelecom_network.node[8].content_store 	misses[8] 	21844
scalar dtelecom_network.node[8].content_store 	decision_yes[8] 	1086
scalar dtelecom_network.node[8].content_store 	decision_no[8] 	20756
scalar dtelecom_network.node[8].content_store 	decision_ratio[8] 	0.049720721545646
scalar dtelecom_network.node[9].core_layer 	interests[9] 	15250
scalar dtelecom_network.node[9].core_layer 	data[9] 	9578
scalar dtelecom_network.node[9].content_store 	p_hit[9] 	0.37180327868852
scalar dtelecom_network.node[9].content_store 	hits[9] 	5670
scalar dtelecom_network.node[9].content_store 	misses[9] 	9580
scalar dtelecom_network.node[9].content_store 	decision_yes[9] 	487
scalar dtelecom_network.node[9].content_store 	decision_no[9] 	9091
scalar dtelecom_network.node[9].content_store 	decision_ratio[9] 	0.05084568803508
scalar dtelecom_network.node[10].core_layer 	interests[10] 	0
scalar dtelecom_network.node[10].core_layer 	data[10] 	0
scalar dtelecom_network.node[10].content_store 	p_hit[10] 	-nan
scalar dtelecom_network.node[10].content_store 	hits[10] 	0
scalar dtelecom_network.node[10].content_store 	misses[10] 	0
scalar dtelecom_network.node[10].content_store 	decision_yes[10] 	0
scalar dtelecom_network.node[10].content_store 	decision_no[10] 	0
scalar dtelecom_network.node[10].content_store 	decision_ratio[10] 	0
scalar dtelecom_network.node[11].core_layer 	interests[11] 	0
scalar dtelecom_network.node[11].core_layer 	data[11] 	0
scalar dtelecom_network.node[11].content_store 	p_hit[11] 	-nan
scalar dtelecom_network.node[11].content_store 	hits[11] 	0
scalar dtelecom_network.node[11].content_store 	misses[11] 	0
scalar dtelecom_network.node[11].content_store 	decision_yes[11] 	0
scalar dtelecom_network.node[11].content_store 	decision_no[11] 	0
scalar dtelecom_network.node[11].content_store 	decision_ratio[11] 	0
scalar dtelecom_network.node[12].core_layer 	interests[12] 	13825
scalar dtelecom_network.node[12].core_layer 	repo_load[12] 	12104
scalar dtelecom_network.node[12].core_layer 	data[12] 	0
scalar dtelecom_network.node[12].content_store 	p_hit[12] 	0.12448462929476
scalar dtelecom_network.node[12].content_store 	hits[12] 	1721
scalar dtelecom_network.node[12].content_store 	misses[12] 	12104
scalar dtelecom_network.node[12].content_store 	decision_yes[12] 	612
scalar dtelecom_network.node[12].content_store 	decision_no[12] 	11492
scalar dtelecom_network.node[12].content_store 	decision_ratio[12] 	0.050561797752809
scalar dtelecom_network.node[13].core_layer 	interests[13] 	0
scalar dtelecom_network.node[13].core_layer 	data[13] 	0
scalar dtelecom_network.node[13].content_store 	p_hit[13] 	-nan
scalar dtelecom_network.node[13].content_store 	hits[13] 	0
scalar dtelecom_network.node[13].content_store 	misses[13] 	0
scalar dtelecom_network.node[13].content_store 	decision_yes[13] 	0
scalar dtelecom_network.node[13].content_store 	decision_no[13] 	0
scalar dtelecom_network.node[13].content_store 	decision_ratio[13] 	0
scalar dtelecom_network.node[14].core_layer 	interests[14] 	0
scalar dtelecom_network.node[14].core_layer 	data[14] 	0
scalar dtelecom_network.node[14].content_store 	p_hit[14] 	-nan
scalar dtelecom_network.node[14].content_store 	hits[14] 	0
scalar dtelecom_network.node[14].content_store 	misses[14] 	0
scalar dtelecom_network.node[14].content_store 	decision_yes[14] 	0
scalar dtelecom_network.node[14].content_store 	decision_no[14] 	0
scalar dtelecom_network.node[14].content_store 	decision_ratio[14] 	0
scalar dtelecom_network.node[15].core_layer 	interests[15] 	0
scalar dtelecom_network.node[15].core_layer 	data[15] 	0
scalar dtelecom_network.node[15].content_store 	p_hit[15] 	-nan
scalar dtelecom_network.node[15].content_store 	hits[15] 	0
scalar dtelecom_network.node[15].content_store 	misses[15] 	0
scalar dtelecom_network.node[15].content_store 	decision_yes[15] 	0
scalar dtelecom_network.node[15].content_store 	decision_no[15] 	0
scalar dtelecom_network.node[15].content_store 	decision_ratio[15] 	0
scalar dtelecom_network.node[16].core_layer 	interests[16] 	0
scalar dtelecom_network.node[16].core_layer 	data[16] 	0
scalar dtelecom_network.node[16].content_store 	p_hit[16] 	-nan
scalar dtelecom_network.node[16].content_store 	hits[16] 	0
scalar dtelecom_network.node[16].content_store 	misses[16] 	0
scalar dtelecom_network.node[16].content_store 	decision_yes[16] 	0
scalar dtelecom_network.node[16].content_store 	decision_no[16] 	0
scalar dtelecom_network.node[16].content_store 	decision_ratio[16] 	0
scalar dtelecom_network.node[17].core_layer 	interests[17] 	14472
scalar dtelecom_network.node[17].core_layer 	data[17] 	9843
scalar dtelecom_network.node[17].content_store 	p_hit[17] 	0.31978993919292
scalar dtelecom_network.node[17].content_store 	hits[17] 	4628
scalar dtelecom_network.node[17].content_store 	misses[17] 	9844
scalar dtelecom_network.node[17].content_store 	decision_yes[17] 	511
scalar dtelecom_network.node[17].content_store 	decision_no[17] 	9332
scalar dtelecom_network.node[17].content_store 	decision_ratio[17] 	0.051915066544753
scalar dtelecom_network.node[18].core_layer 	interests[18] 	0
scalar dtelecom_network.node[18].core_layer 	data[18] 	0
scalar dtelecom_network.node[18].content_store 	p_hit[18] 	-nan
scalar dtelecom_network.node[18].content_store 	hits[18] 	0
scalar dtelecom_network.node[18].content_store 	misses[18] 	0
scalar dtelecom_network.node[18].content_store 	decision_yes[18] 	0
scalar dtelecom_network.node[18].content_store 	decision_no[18] 	0
scalar dtelecom_network.node[18].content_store 	decision_ratio[18] 	0
scalar dtelecom_network.node[19].core_layer 	interests[19] 	0
scalar dtelecom_network.node[19].core_layer 	data[19] 	0
scalar dtelecom_network.node[19].content_store 	p_hit[19] 	-nan
scalar dtelecom_network.node[19].content_store 	hits[19] 	0
scalar dtelecom_network.node[19].content_store 	misses[19] 	0
scalar dtelecom_network.node[19].content_store 	decision_yes[19] 	0
scalar dtelecom_network.node[19].content_store 	decision_no[19] 	0
scalar dtelecom_network.node[19].content_store 	decision_ratio[19] 	0
scalar dtelecom_network.node[20].core_layer 	interests[20] 	0
scalar dtelecom_network.node[20].core_layer 	data[20] 	0
scalar dtelecom_network.node[20].content_store 	p_hit[20] 	-nan
scalar dtelecom_network.node[20].content_store 	hits[20] 	0
scalar dtelecom_network.node[20].content_store 	misses[20] 	0
scalar dtelecom_network.node[20].content_store 	decision_yes[20] 	0
scalar dtelecom_network.node[20].content_store 	decision_no[20] 	0
scalar dtelecom_network.node[20].content_store 	decision_ratio[20] 	0
scalar dtelecom_network.node[21].core_layer 	interests[21] 	0
scalar dtelecom_network.node[21].core_layer 	data[21] 	0
scalar dtelecom_network.node[21].content_store 	p_hit[21] 	-nan
scalar dtelecom_network.node[21].content_store 	hits[21] 	0
scalar dtelecom_network.node[21].content_store 	misses[21] 	0
scalar dtelecom_network.node[21].content_store 	decision_yes[21] 	0
scalar dtelecom_network.node[21].content_store 	decision_no[21] 	0
scalar dtelecom_network.node[21].content_store 	decision_ratio[21] 	0
scalar dtelecom_network.node[22].core_layer 	interests[22] 	25696
scalar dtelecom_network.node[22].core_layer 	repo_load[22] 	12883
scalar dtelecom_network.node[22].core_layer 	data[22] 	9278
scalar dtelecom_network.node[22].content_store 	p_hit[22] 	0.13749221668742
scalar dtelecom_network.node[22].content_store 	hits[22] 	3533
scalar dtelecom_network.node[22].content_store 	misses[22] 	22163
scalar dtelecom_network.node[22].content_store 	decision_yes[22] 	1070
scalar dtelecom_network.node[22].content_store 	decision_no[22] 	21091
scalar dtelecom_network.node[22].content_store 	decision_ratio[22] 	0.048283019719327
scalar dtelecom_network.node[23].core_layer 	interests[23] 	38501
scalar dtelecom_network.node[23].core_layer 	repo_load[23] 	12175
scalar dtelecom_network.node[23].core_layer 	data[23] 	20014
scalar dtelecom_network.node[23].content_store 	p_hit[23] 	0.16373600685696
scalar dtelecom_network.node[23].content_store 	hits[23] 	6304
scalar dtelecom_network.node[23].content_store 	misses[23] 	32197
scalar dtelecom_network.node[23].content_store 	decision_yes[23] 	1567
scalar dtelecom_network.node[23].content_store 	decision_no[23] 	30621
scalar dtelecom_network.node[23].content_store 	decision_ratio[23] 	0.04868273890891
scalar dtelecom_network.node[24].core_layer 	interests[24] 	13309
scalar dtelecom_network.node[24].core_layer 	repo_load[24] 	12043
scalar dtelecom_network.node[24].core_layer 	data[24] 	0
scalar dtelecom_network.node[24].content_store 	p_hit[24] 	0.095123600571042
scalar dtelecom_network.node[24].content_store 	hits[24] 	1266
scalar dtelecom_network.node[24].content_store 	misses[24] 	12043
scalar dtelecom_network.node[24].content_store 	decision_yes[24] 	599
scalar dtelecom_network.node[24].content_store 	decision_no[24] 	11444
scalar dtelecom_network.node[24].content_store 	decision_ratio[24] 	0.049738437266462
scalar dtelecom_network.node[25].core_layer 	interests[25] 	0
scalar dtelecom_network.node[25].core_layer 	data[25] 	0
scalar dtelecom_network.node[25].content_store 	p_hit[25] 	-nan
scalar dtelecom_network.node[25].content_store 	hits[25] 	0
scalar dtelecom_network.node[25].content_store 	misses[25] 	0
scalar dtelecom_network.node[25].content_store 	decision_yes[25] 	0
scalar dtelecom_network.node[25].content_store 	decision_no[25] 	0
scalar dtelecom_network.node[25].content_store 	decision_ratio[25] 	0
scalar dtelecom_network.node[26].core_layer 	interests[26] 	2163
scalar dtelecom_network.node[26].core_layer 	data[26] 	364
scalar dtelecom_network.node[26].content_store 	p_hit[26] 	0.83171521035599
scalar dtelecom_network.node[26].content_store 	hits[26] 	1799
scalar dtelecom_network.node[26].content_store 	misses[26] 	364
scalar dtelecom_network.node[26].content_store 	decision_yes[26] 	19
scalar dtelecom_network.node[26].content_store 	decision_no[26] 	345
scalar dtelecom_network.node[26].content_store 	decision_ratio[26] 	0.052197802197802
scalar dtelecom_network.node[27].core_layer 	interests[27] 	0
scalar dtelecom_network.node[27].core_layer 	data[27] 	0
scalar dtelecom_network.node[27].content_store 	p_hit[27] 	-nan
scalar dtelecom_network.node[27].content_store 	hits[27] 	0
scalar dtelecom_network.node[27].content_store 	misses[27] 	0
scalar dtelecom_network.node[27].content_store 	decision_yes[27] 	0
scalar dtelecom_network.node[27].content_store 	decision_no[27] 	0
scalar dtelecom_network.node[27].content_store 	decision_ratio[27] 	0
scalar dtelecom_network.node[28].core_layer 	interests[28] 	14483
scalar dtelecom_network.node[28].core_layer 	data[28] 	9505
scalar dtelecom_network.node[28].content_store 	p_hit[28] 	0.34357522612718
scalar dtelecom_network.node[28].content_store 	hits[28] 	4976
scalar dtelecom_network.node[28].content_store 	misses[28] 	9507
scalar dtelecom_network.node[28].content_store 	decision_yes[28] 	496
scalar dtelecom_network.node[28].content_store 	decision_no[28] 	9009
scalar dtelecom_network.node[28].content_store 	decision_ratio[28] 	0.052183061546554
scalar dtelecom_network.node[29].core_layer 	interests[29] 	0
scalar dtelecom_network.node[29].core_layer 	data[29] 	0
scalar dtelecom_network.node[29].content_store 	p_hit[29] 	-nan
scalar dtelecom_network.node[29].content_store 	hits[29] 	0
scalar dtelecom_network.node[29].content_store 	misses[29] 	0
scalar dtelecom_network.node[29].content_store 	decision_yes[29] 	0
scalar dtelecom_network.node[29].content_store 	decision_no[29] 	0
scalar dtelecom_network.node[29].content_store 	decision_ratio[29] 	0
scalar dtelecom_network.node[30].core_layer 	interests[30] 	13693
scalar dtelecom_network.node[30].core_layer 	data[30] 	9589
scalar dtelecom_network.node[30].content_store 	p_hit[30] 	0.29964215292485
scalar dtelecom_network.node[30].content_store 	hits[30] 	4103
scalar dtelecom_network.node[30].content_store 	misses[30] 	9590
scalar dtelecom_network.node[30].content_store 	decision_yes[30] 	484
scalar dtelecom_network.node[30].content_store 	decision_no[30] 	9105
scalar dtelecom_network.node[30].content_store 	decision_ratio[30] 	0.05047450203358
scalar dtelecom_network.node[31].core_layer 	interests[31] 	14055
scalar dtelecom_network.node[31].core_layer 	data[31] 	9343
scalar dtelecom_network.node[31].content_store 	p_hit[31] 	0.33511205976521
scalar dtelecom_network.node[31].content_store 	hits[31] 	4710
scalar dtelecom_network.node[31].content_store 	misses[31] 	9345
scalar dtelecom_network.node[31].content_store 	decision_yes[31] 	480
scalar dtelecom_network.node[31].content_store 	decision_no[31] 	8863
scalar dtelecom_network.node[31].content_store 	decision_ratio[31] 	0.051375361233009
scalar dtelecom_network.node[32].core_layer 	interests[32] 	24889
scalar dtelecom_network.node[32].core_layer 	repo_load[32] 	12151
scalar dtelecom_network.node[32].core_layer 	data[32] 	9251
scalar dtelecom_network.node[32].content_store 	p_hit[32] 	0.14010205311583
scalar dtelecom_network.node[32].content_store 	hits[32] 	3487
scalar dtelecom_network.node[32].content_store 	misses[32] 	21402
scalar dtelecom_network.node[32].content_store 	decision_yes[32] 	1077
scalar dtelecom_network.node[32].content_store 	decision_no[32] 	20325
scalar dtelecom_network.node[32].content_store 	decision_ratio[32] 	0.050322399775722
scalar dtelecom_network.node[33].core_layer 	interests[33] 	15072
scalar dtelecom_network.node[33].core_layer 	data[33] 	9493
scalar dtelecom_network.node[33].content_store 	p_hit[33] 	0.37015658174098
scalar dtelecom_network.node[33].content_store 	hits[33] 	5579
scalar dtelecom_network.node[33].content_store 	misses[33] 	9493
scalar dtelecom_network.node[33].content_store 	decision_yes[33] 	453
scalar dtelecom_network.node[33].content_store 	decision_no[33] 	9040
scalar dtelecom_network.node[33].content_store 	decision_ratio[33] 	0.047719372168967
scalar dtelecom_network.node[34].core_layer 	interests[34] 	13053
scalar dtelecom_network.node[34].core_layer 	repo_load[34] 	11823
scalar dtelecom_network.node[34].core_layer 	data[34] 	0
scalar dtelecom_network.node[34].content_store 	p_hit[34] 	0.094231211215812
scalar dtelecom_network.node[34].content_store 	hits[34] 	1230
scalar dtelecom_network.node[34].content_store 	misses[34] 	11823
scalar dtelecom_network.node[34].content_store 	decision_yes[34] 	609
scalar dtelecom_network.node[34].content_store 	decision_no[34] 	11214
scalar dtelecom_network.node[34].content_store 	decision_ratio[34] 	0.051509769094139
scalar dtelecom_network.node[35].core_layer 	interests[35] 	0
scalar dtelecom_network.node[35].core_layer 	data[35] 	0
scalar dtelecom_network.node[35].content_store 	p_hit[35] 	-nan
scalar dtelecom_network.node[35].content_store 	hits[35] 	0
scalar dtelecom_network.node[35].content_store 	misses[35] 	0
scalar dtelecom_network.node[35].content_store 	decision_yes[35] 	0
scalar dtelecom_network.node[35].content_store 	decision_no[35] 	0
scalar dtelecom_network.node[35].content_store 	decision_ratio[35] 	0
scalar dtelecom_network.node[36].core_layer 	interests[36] 	13904
scalar dtelecom_network.node[36].core_layer 	data[36] 	9489
scalar dtelecom_network.node[36].content_store 	p_hit[36] 	0.31731875719217
scalar dtelecom_network.node[36].content_store 	hits[36] 	4412
scalar dtelecom_network.node[36].content_store 	misses[36] 	9492
scalar dtelecom_network.node[36].content_store 	decision_yes[36] 	434
scalar dtelecom_network.node[36].content_store 	decision_no[36] 	9055
scalar dtelecom_network.node[36].content_store 	decision_ratio[36] 	0.045737169353989
scalar dtelecom_network.node[37].core_layer 	interests[37] 	14546
scalar dtelecom_network.node[37].core_layer 	data[37] 	9795
scalar dtelecom_network.node[37].content_store 	p_hit[37] 	0.32641275952152
scalar dtelecom_network.node[37].content_store 	hits[37] 	4748
scalar dtelecom_network.node[37].content_store 	misses[37] 	9798
scalar dtelecom_network.node[37].content_store 	decision_yes[37] 	476
scalar dtelecom_network.node[37].content_store 	decision_no[37] 	9319
scalar dtelecom_network.node[37].content_store 	decision_ratio[37] 	0.048596222562532
scalar dtelecom_network.node[38].core_layer 	interests[38] 	0
scalar dtelecom_network.node[38].core_layer 	data[38] 	0
scalar dtelecom_network.node[38].content_store 	p_hit[38] 	-nan
scalar dtelecom_network.node[38].content_store 	hits[38] 	0
scalar dtelecom_network.node[38].content_store 	misses[38] 	0
scalar dtelecom_network.node[38].content_store 	decision_yes[38] 	0
scalar dtelecom_network.node[38].content_store 	decision_no[38] 	0
scalar dtelecom_network.node[38].content_store 	decision_ratio[38] 	0
scalar dtelecom_network.node[39].core_layer 	interests[39] 	0
scalar dtelecom_network.node[39].core_layer 	data[39] 	0
scalar dtelecom_network.node[39].content_store 	p_hit[39] 	-nan
scalar dtelecom_network.node[39].content_store 	hits[39] 	0
scalar dtelecom_network.node[39].content_store 	misses[39] 	0
scalar dtelecom_network.node[39].content_store 	decision_yes[39] 	0
scalar dtelecom_network.node[39].content_store 	decision_no[39] 	0
scalar dtelecom_network.node[39].content_store 	decision_ratio[39] 	0
scalar dtelecom_network.node[40].core_layer 	interests[40] 	16097
scalar dtelecom_network.node[40].core_layer 	data[40] 	9875
scalar dtelecom_network.node[40].content_store 	p_hit[40] 	0.38634528172951
scalar dtelecom_network.node[40].content_store 	hits[40] 	6219
scalar dtelecom_network.node[40].content_store 	misses[40] 	9878
scalar dtelecom_network.node[40].content_store 	decision_yes[40] 	498
scalar dtelecom_network.node[40].content_store 	decision_no[40] 	9377
scalar dtelecom_network.node[40].content_store 	decision_ratio[40] 	0.050430379746835
scalar dtelecom_network.node[41].core_layer 	interests[41] 	0
scalar dtelecom_network.node[41].core_layer 	data[41] 	0
scalar dtelecom_network.node[41].content_store 	p_hit[41] 	-nan
scalar dtelecom_network.node[41].content_store 	hits[41] 	0
scalar dtelecom_network.node[41].content_store 	misses[41] 	0
scalar dtelecom_network.node[41].content_store 	decision_yes[41] 	0
scalar dtelecom_network.node[41].content_store 	decision_no[41] 	0
scalar dtelecom_network.node[41].content_store 	decision_ratio[41] 	0
scalar dtelecom_network.node[42].core_layer 	interests[42] 	13627
scalar dtelecom_network.node[42].core_layer 	data[42] 	9210
scalar dtelecom_network.node[42].content_store 	p_hit[42] 	0.32398913920892
scalar dtelecom_network.node[42].content_store 	hits[42] 	4415
scalar dtelecom_network.node[42].content_store 	misses[42] 	9212
scalar dtelecom_network.node[42].content_store 	decision_yes[42] 	468
scalar dtelecom_network.node[42].content_store 	decision_no[42] 	8742
scalar dtelecom_network.node[42].content_store 	decision_ratio[42] 	0.050814332247557
scalar dtelecom_network.node[43].core_layer 	interests[43] 	11219
scalar dtelecom_network.node[43].core_layer 	repo_load[43] 	10026
scalar dtelecom_network.node[43].core_layer 	data[43] 	0
scalar dtelecom_network.node[43].content_store 	p_hit[43] 	0.10633746323202
scalar dtelecom_network.node[43].content_store 	hits[43] 	1193
scalar dtelecom_network.node[43].content_store 	misses[43] 	10026
scalar dtelecom_network.node[43].content_store 	decision_yes[43] 	475
scalar dtelecom_network.node[43].content_store 	decision_no[43] 	9551
scalar dtelecom_network.node[43].content_store 	decision_ratio[43] 	0.047376820267305
scalar dtelecom_network.node[44].core_layer 	interests[44] 	0
scalar dtelecom_network.node[44].core_layer 	data[44] 	0
scalar dtelecom_network.node[44].content_store 	p_hit[44] 	-nan
scalar dtelecom_network.node[44].content_store 	hits[44] 	0
scalar dtelecom_network.node[44].content_store 	misses[44] 	0
scalar dtelecom_network.node[44].content_store 	decision_yes[44] 	0
scalar dtelecom_network.node[44].content_store 	decision_no[44] 	0
scalar dtelecom_network.node[44].content_store 	decision_ratio[44] 	0
scalar dtelecom_network.node[45].core_layer 	interests[45] 	25744
scalar dtelecom_network.node[45].core_layer 	repo_load[45] 	12628
scalar dtelecom_network.node[45].core_layer 	data[45] 	9251
scalar dtelecom_network.node[45].content_store 	p_hit[45] 	0.14997669359851
scalar dtelecom_network.node[45].content_store 	hits[45] 	3861
scalar dtelecom_network.node[45].content_store 	misses[45] 	21883
scalar dtelecom_network.node[45].content_store 	decision_yes[45] 	1118
scalar dtelecom_network.node[45].content_store 	decision_no[45] 	20761
scalar dtelecom_network.node[45].content_store 	decision_ratio[45] 	0.051099227569816
scalar dtelecom_network.node[46].core_layer 	interests[46] 	14069
scalar dtelecom_network.node[46].core_layer 	data[46] 	9521
scalar dtelecom_network.node[46].content_store 	p_hit[46] 	0.32326391356884
scalar dtelecom_network.node[46].content_store 	hits[46] 	4548
scalar dtelecom_network.node[46].content_store 	misses[46] 	9521
scalar dtelecom_network.node[46].content_store 	decision_yes[46] 	505
scalar dtelecom_network.node[46].content_store 	decision_no[46] 	9016
scalar dtelecom_network.node[46].content_store 	decision_ratio[46] 	0.053040646990862
scalar dtelecom_network.node[47].core_layer 	interests[47] 	0
scalar dtelecom_network.node[47].core_layer 	data[47] 	0
scalar dtelecom_network.node[47].content_store 	p_hit[47] 	-nan
scalar dtelecom_network.node[47].content_store 	hits[47] 	0
scalar dtelecom_network.node[47].content_store 	misses[47] 	0
scalar dtelecom_network.node[47].content_store 	decision_yes[47] 	0
scalar dtelecom_network.node[47].content_store 	decision_no[47] 	0
scalar dtelecom_network.node[47].content_store 	decision_ratio[47] 	0
scalar dtelecom_network.node[48].core_layer 	interests[48] 	13812
scalar dtelecom_network.node[48].core_layer 	data[48] 	9469
scalar dtelecom_network.node[48].content_store 	p_hit[48] 	0.31436432088039
scalar dtelecom_network.node[48].content_store 	hits[48] 	4342
scalar dtelecom_network.node[48].content_store 	misses[48] 	9470
scalar dtelecom_network.node[48].content_store 	decision_yes[48] 	498
scalar dtelecom_network.node[48].content_store 	decision_no[48] 	8971
scalar dtelecom_network.node[48].content_store 	decision_ratio[48] 	0.052592670820572
scalar dtelecom_network.node[49].core_layer 	interests[49] 	13910
scalar dtelecom_network.node[49].core_layer 	data[49] 	9319
scalar dtelecom_network.node[49].content_store 	p_hit[49] 	0.32983465132998
scalar dtelecom_network.node[49].content_store 	hits[49] 	4588
scalar dtelecom_network.node[49].content_store 	misses[49] 	9322
scalar dtelecom_network.node[49].content_store 	decision_yes[49] 	457
scalar dtelecom_network.node[49].content_store 	decision_no[49] 	8862
scalar dtelecom_network.node[49].content_store 	decision_ratio[49] 	0.049039596523232
scalar dtelecom_network.node[50].core_layer 	interests[50] 	13713
scalar dtelecom_network.node[50].core_layer 	data[50] 	9612
scalar dtelecom_network.node[50].content_store 	p_hit[50] 	0.29891343980165
scalar dtelecom_network.node[50].content_store 	hits[50] 	4099
scalar dtelecom_network.node[50].content_store 	misses[50] 	9614
scalar dtelecom_network.node[50].content_store 	decision_yes[50] 	476
scalar dtelecom_network.node[50].content_store 	decision_no[50] 	9136
scalar dtelecom_network.node[50].content_store 	decision_ratio[50] 	0.049521431543903
scalar dtelecom_network.node[51].core_layer 	interests[51] 	26114
scalar dtelecom_network.node[51].core_layer 	repo_load[51] 	13179
scalar dtelecom_network.node[51].core_layer 	data[51] 	9175
scalar dtelecom_network.node[51].content_store 	p_hit[51] 	0.1439074825764
scalar dtelecom_network.node[51].content_store 	hits[51] 	3758
scalar dtelecom_network.node[51].content_store 	misses[51] 	22356
scalar dtelecom_network.node[51].content_store 	decision_yes[51] 	1101
scalar dtelecom_network.node[51].content_store 	decision_no[51] 	21253
scalar dtelecom_network.node[51].content_store 	decision_ratio[51] 	0.049252930124363
scalar dtelecom_network.node[52].core_layer 	interests[52] 	0
scalar dtelecom_network.node[52].core_layer 	data[52] 	0
scalar dtelecom_network.node[52].content_store 	p_hit[52] 	-nan
scalar dtelecom_network.node[52].content_store 	hits[52] 	0
scalar dtelecom_network.node[52].content_store 	misses[52] 	0
scalar dtelecom_network.node[52].content_store 	decision_yes[52] 	0
scalar dtelecom_network.node[52].content_store 	decision_no[52] 	0
scalar dtelecom_network.node[52].content_store 	decision_ratio[52] 	0
scalar dtelecom_network.node[53].core_layer 	interests[53] 	14131
scalar dtelecom_network.node[53].core_layer 	data[53] 	9709
scalar dtelecom_network.node[53].content_store 	p_hit[53] 	0.31285825490057
scalar dtelecom_network.node[53].content_store 	hits[53] 	4421
scalar dtelecom_network.node[53].content_store 	misses[53] 	9710
scalar dtelecom_network.node[53].content_store 	decision_yes[53] 	496
scalar dtelecom_network.node[53].content_store 	decision_no[53] 	9213
scalar dtelecom_network.node[53].content_store 	decision_ratio[53] 	0.051086620661242
scalar dtelecom_network.node[54].core_layer 	interests[54] 	14213
scalar dtelecom_network.node[54].core_layer 	data[54] 	9596
scalar dtelecom_network.node[54].content_store 	p_hit[54] 	0.32470273693098
scalar dtelecom_network.node[54].content_store 	hits[54] 	4615
scalar dtelecom_network.node[54].content_store 	misses[54] 	9598
scalar dtelecom_network.node[54].content_store 	decision_yes[54] 	504
scalar dtelecom_network.node[54].content_store 	decision_no[54] 	9092
scalar dtelecom_network.node[54].content_store 	decision_ratio[54] 	0.052521884118383
scalar dtelecom_network.node[55].core_layer 	interests[55] 	14035
scalar dtelecom_network.node[55].core_layer 	data[55] 	9267
scalar dtelecom_network.node[55].content_store 	p_hit[55] 	0.33965087281796
scalar dtelecom_network.node[55].content_store 	hits[55] 	4767
scalar dtelecom_network.node[55].content_store 	misses[55] 	9268
scalar dtelecom_network.node[55].content_store 	decision_yes[55] 	458
scalar dtelecom_network.node[55].content_store 	decision_no[55] 	8809
scalar dtelecom_network.node[55].content_store 	decision_ratio[55] 	0.049422682637315
scalar dtelecom_network.node[56].core_layer 	interests[56] 	14027
scalar dtelecom_network.node[56].core_layer 	data[56] 	9426
scalar dtelecom_network.node[56].content_store 	p_hit[56] 	0.32801026591573
scalar dtelecom_network.node[56].content_store 	hits[56] 	4601
scalar dtelecom_network.node[56].content_store 	misses[56] 	9426
scalar dtelecom_network.node[56].content_store 	decision_yes[56] 	467
scalar dtelecom_network.node[56].content_store 	decision_no[56] 	8959
scalar dtelecom_network.node[56].content_store 	decision_ratio[56] 	0.049543814979843
scalar dtelecom_network.node[57].core_layer 	interests[57] 	13302
scalar dtelecom_network.node[57].core_layer 	data[57] 	9386
scalar dtelecom_network.node[57].content_store 	p_hit[57] 	0.29446699744399
scalar dtelecom_network.node[57].content_store 	hits[57] 	3917
scalar dtelecom_network.node[57].content_store 	misses[57] 	9385
scalar dtelecom_network.node[57].content_store 	decision_yes[57] 	477
scalar dtelecom_network.node[57].content_store 	decision_no[57] 	8909
scalar dtelecom_network.node[57].content_store 	decision_ratio[57] 	0.050820370764969
scalar dtelecom_network.node[58].core_layer 	interests[58] 	14118
scalar dtelecom_network.node[58].core_layer 	data[58] 	9429
scalar dtelecom_network.node[58].content_store 	p_hit[58] 	0.33191670208245
scalar dtelecom_network.node[58].content_store 	hits[58] 	4686
scalar dtelecom_network.node[58].content_store 	misses[58] 	9432
scalar dtelecom_network.node[58].content_store 	decision_yes[58] 	472
scalar dtelecom_network.node[58].content_store 	decision_no[58] 	8957
scalar dtelecom_network.node[58].content_store 	decision_ratio[58] 	0.050058330681939
scalar dtelecom_network.node[59].core_layer 	interests[59] 	16436
scalar dtelecom_network.node[59].core_layer 	data[59] 	9477
scalar dtelecom_network.node[59].content_store 	p_hit[59] 	0.42321732781699
scalar dtelecom_network.node[59].content_store 	hits[59] 	6956
scalar dtelecom_network.node[59].content_store 	misses[59] 	9480
scalar dtelecom_network.node[59].content_store 	decision_yes[59] 	479
scalar dtelecom_network.node[59].content_store 	decision_no[59] 	8998
scalar dtelecom_network.node[59].content_store 	decision_ratio[59] 	0.050543420913791
scalar dtelecom_network.node[60].core_layer 	interests[60] 	12967
scalar dtelecom_network.node[60].core_layer 	repo_load[60] 	11724
scalar dtelecom_network.node[60].core_layer 	data[60] 	0
scalar dtelecom_network.node[60].content_store 	p_hit[60] 	0.095858718284877
scalar dtelecom_network.node[60].content_store 	hits[60] 	1243
scalar dtelecom_network.node[60].content_store 	misses[60] 	11724
scalar dtelecom_network.node[60].content_store 	decision_yes[60] 	571
scalar dtelecom_network.node[60].content_store 	decision_no[60] 	11153
scalar dtelecom_network.node[60].content_store 	decision_ratio[60] 	0.04870351415899
scalar dtelecom_network.node[61].core_layer 	interests[61] 	0
scalar dtelecom_network.node[61].core_layer 	data[61] 	0
scalar dtelecom_network.node[61].content_store 	p_hit[61] 	-nan
scalar dtelecom_network.node[61].content_store 	hits[61] 	0
scalar dtelecom_network.node[61].content_store 	misses[61] 	0
scalar dtelecom_network.node[61].content_store 	decision_yes[61] 	0
scalar dtelecom_network.node[61].content_store 	decision_no[61] 	0
scalar dtelecom_network.node[61].content_store 	decision_ratio[61] 	0
scalar dtelecom_network.node[62].core_layer 	interests[62] 	13174
scalar dtelecom_network.node[62].core_layer 	data[62] 	9521
scalar dtelecom_network.node[62].content_store 	p_hit[62] 	0.27706087748596
scalar dtelecom_network.node[62].content_store 	hits[62] 	3650
scalar dtelecom_network.node[62].content_store 	misses[62] 	9524
scalar dtelecom_network.node[62].content_store 	decision_yes[62] 	521
scalar dtelecom_network.node[62].content_store 	decision_no[62] 	9000
scalar dtelecom_network.node[62].content_store 	decision_ratio[62] 	0.054721142737107
scalar dtelecom_network.node[63].core_layer 	interests[63] 	0
scalar dtelecom_network.node[63].core_layer 	data[63] 	0
scalar dtelecom_network.node[63].content_store 	p_hit[63] 	-nan
scalar dtelecom_network.node[63].content_store 	hits[63] 	0
scalar dtelecom_network.node[63].content_store 	misses[63] 	0
scalar dtelecom_network.node[63].content_store 	decision_yes[63] 	0
scalar dtelecom_network.node[63].content_store 	decision_no[63] 	0
scalar dtelecom_network.node[63].content_store 	decision_ratio[63] 	0
scalar dtelecom_network.node[64].core_layer 	interests[64] 	12971
scalar dtelecom_network.node[64].core_layer 	repo_load[64] 	11859
scalar dtelecom_network.node[64].core_layer 	data[64] 	0
scalar dtelecom_network.node[64].content_store 	p_hit[64] 	0.085729704725927
scalar dtelecom_network.node[64].content_store 	hits[64] 	1112
scalar dtelecom_network.node[64].content_store 	misses[64] 	11859
scalar dtelecom_network.node[64].content_store 	decision_yes[64] 	581
scalar dtelecom_network.node[64].content_store 	decision_no[64] 	11278
scalar dtelecom_network.node[64].content_store 	decision_ratio[64] 	0.048992326503078
scalar dtelecom_network.node[65].core_layer 	interests[65] 	537
scalar dtelecom_network.node[65].core_layer 	data[65] 	46
scalar dtelecom_network.node[65].content_store 	p_hit[65] 	0.91433891992551
scalar dtelecom_network.node[65].content_store 	hits[65] 	491
scalar dtelecom_network.node[65].content_store 	misses[65] 	46
scalar dtelecom_network.node[65].content_store 	decision_yes[65] 	2
scalar dtelecom_network.node[65].content_store 	decision_no[65] 	44
scalar dtelecom_network.node[65].content_store 	decision_ratio[65] 	0.043478260869565
scalar dtelecom_network.node[66].core_layer 	interests[66] 	13420
scalar dtelecom_network.node[66].core_layer 	data[66] 	9493
scalar dtelecom_network.node[66].content_store 	p_hit[66] 	0.29232488822653
scalar dtelecom_network.node[66].content_store 	hits[66] 	3923
scalar dtelecom_network.node[66].content_store 	misses[66] 	9497
scalar dtelecom_network.node[66].content_store 	decision_yes[66] 	522
scalar dtelecom_network.node[66].content_store 	decision_no[66] 	8971
scalar dtelecom_network.node[66].content_store 	decision_ratio[66] 	0.054987885810597
scalar dtelecom_network.node[67].core_layer 	interests[67] 	13449
scalar dtelecom_network.node[67].core_layer 	data[67] 	9570
scalar dtelecom_network.node[67].content_store 	p_hit[67] 	0.28812551119042
scalar dtelecom_network.node[67].content_store 	hits[67] 	3875
scalar dtelecom_network.node[67].content_store 	misses[67] 	9574
scalar dtelecom_network.node[67].content_store 	decision_yes[67] 	489
scalar dtelecom_network.node[67].content_store 	decision_no[67] 	9081
scalar dtelecom_network.node[67].content_store 	decision_ratio[67] 	0.051097178683386
scalar dtelecom_network.client[3] 	hdistance[3] 	1.3697778514589
scalar dtelecom_network.client[3] 	downloads[3] 	12064
scalar dtelecom_network.client[3] 	avg_time[3] 	0.011269881599
scalar dtelecom_network.client[4] 	hdistance[4] 	1.3308409644627
scalar dtelecom_network.client[4] 	downloads[4] 	11903
scalar dtelecom_network.client[4] 	avg_time[4] 	0.049733656949
scalar dtelecom_network.client[8] 	hdistance[8] 	1.8265886425451
scalar dtelecom_network.client[8] 	downloads[8] 	12133
scalar dtelecom_network.client[8] 	avg_time[8] 	0.017278942343
scalar dtelecom_network.client[9] 	hdistance[9] 	1.7787976515339
scalar dtelecom_network.client[9] 	downloads[9] 	12093
scalar dtelecom_network.client[9] 	avg_time[9] 	0.016149364121
scalar dtelecom_network.client[17] 	hdistance[17] 	1.8140887190563
scalar dtelecom_network.client[17] 	downloads[17] 	12038
scalar dtelecom_network.client[17] 	avg_time[17] 	0.015702440349
scalar dtelecom_network.client[22] 	hdistance[22] 	1.8064275037369
scalar dtelecom_network.client[22] 	downloads[22] 	12042
scalar dtelecom_network.client[22] 	avg_time[22] 	0.016187882523
scalar dtelecom_network.client[23] 	hdistance[23] 	1.6096149005789
scalar dtelecom_network.client[23] 	downloads[23] 	11919
scalar dtelecom_network.client[23] 	avg_time[23] 	0.014518780395
scalar dtelecom_network.client[28] 	hdistance[28] 	1.813970770374
scalar dtelecom_network.client[28] 	downloads[28] 	12111
scalar dtelecom_network.client[28] 	avg_time[28] 	0.017782070997
scalar dtelecom_network.client[30] 	hdistance[30] 	1.8977291701453
scalar dtelecom_network.client[30] 	downloads[30] 	11978
scalar dtelecom_network.client[30] 	avg_time[30] 	0.016471798724
scalar dtelecom_network.client[31] 	hdistance[31] 	1.8391626029931
scalar dtelecom_network.client[31] 	downloads[31] 	11894
scalar dtelecom_network.client[31] 	avg_time[31] 	0.017983450347
scalar dtelecom_network.client[32] 	hdistance[32] 	1.8317108270549
scalar dtelecom_network.client[32] 	downloads[32] 	11813
scalar dtelecom_network.client[32] 	avg_time[32] 	0.015661384721
scalar dtelecom_network.client[33] 	hdistance[33] 	1.7608390453382
scalar dtelecom_network.client[33] 	downloads[33] 	12109
scalar dtelecom_network.client[33] 	avg_time[33] 	0.014741678305
scalar dtelecom_network.client[36] 	hdistance[36] 	1.8746626180837
scalar dtelecom_network.client[36] 	downloads[36] 	11856
scalar dtelecom_network.client[36] 	avg_time[36] 	0.015933393215
scalar dtelecom_network.client[37] 	hdistance[37] 	1.8429212566299
scalar dtelecom_network.client[37] 	downloads[37] 	12255
scalar dtelecom_network.client[37] 	avg_time[37] 	0.017066088511
scalar dtelecom_network.client[40] 	hdistance[40] 	1.7404205801679
scalar dtelecom_network.client[40] 	downloads[40] 	12031
scalar dtelecom_network.client[40] 	avg_time[40] 	0.016477111047
scalar dtelecom_network.client[42] 	hdistance[42] 	1.8184654300169
scalar dtelecom_network.client[42] 	downloads[42] 	11860
scalar dtelecom_network.client[42] 	avg_time[42] 	0.017733961206
scalar dtelecom_network.client[45] 	hdistance[45] 	1.7372584943371
scalar dtelecom_network.client[45] 	downloads[45] 	12008
scalar dtelecom_network.client[45] 	avg_time[45] 	0.016550189248
scalar dtelecom_network.client[46] 	hdistance[46] 	1.8238419392329
scalar dtelecom_network.client[46] 	downloads[46] 	12046
scalar dtelecom_network.client[46] 	avg_time[46] 	0.018067058322
scalar dtelecom_network.client[48] 	hdistance[48] 	1.8337353405972
scalar dtelecom_network.client[48] 	downloads[48] 	12023
scalar dtelecom_network.client[48] 	avg_time[48] 	0.017173590267
scalar dtelecom_network.client[49] 	hdistance[49] 	1.833982390789
scalar dtelecom_network.client[49] 	downloads[49] 	11812
scalar dtelecom_network.client[49] 	avg_time[49] 	0.015822830787
scalar dtelecom_network.client[50] 	hdistance[50] 	1.8767326732673
scalar dtelecom_network.client[50] 	downloads[50] 	12120
scalar dtelecom_network.client[50] 	avg_time[50] 	0.015766074603
scalar dtelecom_network.client[51] 	hdistance[51] 	1.7616775489704
scalar dtelecom_network.client[51] 	downloads[51] 	11946
scalar dtelecom_network.client[51] 	avg_time[51] 	0.016227472081
scalar dtelecom_network.client[53] 	hdistance[53] 	1.8491716805407
scalar dtelecom_network.client[53] 	downloads[53] 	12133
scalar dtelecom_network.client[53] 	avg_time[53] 	0.015545923982
scalar dtelecom_network.client[54] 	hdistance[54] 	1.8014869888476
scalar dtelecom_network.client[54] 	downloads[54] 	12105
scalar dtelecom_network.client[54] 	avg_time[54] 	0.016817410313
scalar dtelecom_network.client[55] 	hdistance[55] 	1.8217573221757
scalar dtelecom_network.client[55] 	downloads[55] 	11950
scalar dtelecom_network.client[55] 	avg_time[55] 	0.019723033179
scalar dtelecom_network.client[56] 	hdistance[56] 	1.8070670205707
scalar dtelecom_network.client[56] 	downloads[56] 	12056
scalar dtelecom_network.client[56] 	avg_time[56] 	0.015180653159
scalar dtelecom_network.client[57] 	hdistance[57] 	1.8566123723521
scalar dtelecom_network.client[57] 	downloads[57] 	11849
scalar dtelecom_network.client[57] 	avg_time[57] 	0.014891871652
scalar dtelecom_network.client[58] 	hdistance[58] 	1.8110564495956
scalar dtelecom_network.client[58] 	downloads[58] 	11993
scalar dtelecom_network.client[58] 	avg_time[58] 	0.018674687351
scalar dtelecom_network.client[59] 	hdistance[59] 	1.8811052417716
scalar dtelecom_network.client[59] 	downloads[59] 	12305
scalar dtelecom_network.client[59] 	avg_time[59] 	0.059935118135
scalar dtelecom_network.client[62] 	hdistance[62] 	2.2848325240721
scalar dtelecom_network.client[62] 	downloads[62] 	12151
scalar dtelecom_network.client[62] 	avg_time[62] 	0.062882417434
scalar dtelecom_network.client[66] 	hdistance[66] 	1.9928661351238
scalar dtelecom_network.client[66] 	downloads[66] 	11915
scalar dtelecom_network.client[66] 	avg_time[66] 	0.092908716185
scalar dtelecom_network.client[67] 	hdistance[67] 	2.0537186641126
scalar dtelecom_network.client[67] 	downloads[67] 	12007
scalar dtelecom_network.client[67] 	avg_time[67] 	0.07793952864
