version 2
run General-43-20160823-13:08:29-12979
attr D ffc0.1
attr F nrr
attr R lru
attr a 0.9
attr configname General
attr datetime 20160823-13:08:29
attr experiment General
attr inifile hw5115/scenario_B/bus.ini
attr iterationvars "$net=bus, $rep=0, $a=0.9, $F=nrr, $D=ffc0.1, $R=lru, $window=60, $variance=0.05, $mytime=600, $test=test"
attr iterationvars2 "$net=bus, $rep=0, $a=0.9, $F=nrr, $D=ffc0.1, $R=lru, $window=60, $variance=0.05, $mytime=600, $test=test, $repetition=0"
attr measurement "$net=bus, $rep=0, $a=0.9, $F=nrr, $D=ffc0.1, $R=lru, $window=60, $variance=0.05, $mytime=600, $test=test"
attr mytime 600
attr net bus
attr network networks.${net=bus}_network
attr processid 12979
attr rep 0
attr repetition 0
attr replication #0
attr resultdir results
attr runnumber 43
attr seedset 0
attr test test
attr variance 0.05
attr window 60

scalar . 	a 	0.9
scalar . 	mytime 	600
scalar . 	rep 	0
scalar . 	variance 	0.05
scalar . 	window 	60
scalar bus_network.content_distribution 	repo-0 	9
scalar bus_network.content_distribution 	client-0 	5
scalar bus_network.content_distribution 	client-1 	8
scalar bus_network.content_distribution 	client-2 	9
scalar bus_network.content_distribution 	client-3 	0
scalar bus_network.content_distribution 	client-4 	1
scalar bus_network.content_distribution 	client-5 	7
scalar bus_network.content_distribution 	client-6 	6
scalar bus_network.content_distribution 	client-7 	2
scalar bus_network.content_distribution 	client-8 	4
scalar bus_network.content_distribution 	client-9 	3
scalar bus_network.content_distribution 	repo-0_card 	100000
scalar bus_network.content_distribution 	repo-0_price 	0
scalar bus_network.statistics 	stabilization_time 	1512.7
scalar bus_network.statistics 	p_hit 	0.12195907240762
scalar bus_network.statistics 	interests 	48013.2
scalar bus_network.statistics 	data 	35995.3
scalar bus_network.statistics 	hdistance 	3.6279115987003
scalar bus_network.statistics 	avg_time 	0.005995942387
scalar bus_network.statistics 	downloads 	120178
scalar bus_network.statistics 	total_cost 	0
scalar bus_network.statistics 	total_replicas 	100000
scalar bus_network.statistics 	inner_hit 	0.37032568356937
scalar bus_network.node[0].core_layer 	interests[0] 	12327
scalar bus_network.node[0].core_layer 	data[0] 	8822
scalar bus_network.node[0].core_layer 	repo_int[0] 	75673
scalar bus_network.node[0].content_store 	p_hit[0] 	0.28433519915632
scalar bus_network.node[0].content_store 	hits[0] 	3505
scalar bus_network.node[0].content_store 	misses[0] 	8822
scalar bus_network.node[0].content_store 	decision_yes[0] 	12
scalar bus_network.node[0].content_store 	decision_no[0] 	8810
scalar bus_network.node[0].content_store 	decision_ratio[0] 	0.0013602357742009
scalar bus_network.node[1].core_layer 	interests[1] 	21851
scalar bus_network.node[1].core_layer 	data[1] 	17383
scalar bus_network.node[1].content_store 	p_hit[1] 	0.20443000320351
scalar bus_network.node[1].content_store 	hits[1] 	4467
scalar bus_network.node[1].content_store 	misses[1] 	17384
scalar bus_network.node[1].content_store 	decision_yes[1] 	33
scalar bus_network.node[1].content_store 	decision_no[1] 	17350
scalar bus_network.node[1].content_store 	decision_ratio[1] 	0.0018984064890985
scalar bus_network.node[2].core_layer 	interests[2] 	30288
scalar bus_network.node[2].core_layer 	data[2] 	25546
scalar bus_network.node[2].content_store 	p_hit[2] 	0.15653063919704
scalar bus_network.node[2].content_store 	hits[2] 	4741
scalar bus_network.node[2].content_store 	misses[2] 	25547
scalar bus_network.node[2].content_store 	decision_yes[2] 	29
scalar bus_network.node[2].content_store 	decision_no[2] 	25517
scalar bus_network.node[2].content_store 	decision_ratio[2] 	0.001135207077429
scalar bus_network.node[3].core_layer 	interests[3] 	38187
scalar bus_network.node[3].core_layer 	data[3] 	33540
scalar bus_network.node[3].content_store 	p_hit[3] 	0.12169062770053
scalar bus_network.node[3].content_store 	hits[3] 	4647
scalar bus_network.node[3].content_store 	misses[3] 	33540
scalar bus_network.node[3].content_store 	decision_yes[3] 	31
scalar bus_network.node[3].content_store 	decision_no[3] 	33509
scalar bus_network.node[3].content_store 	decision_ratio[3] 	0.00092426952892069
scalar bus_network.node[4].core_layer 	interests[4] 	45738
scalar bus_network.node[4].core_layer 	data[4] 	40848
scalar bus_network.node[4].content_store 	p_hit[4] 	0.10689142507324
scalar bus_network.node[4].content_store 	hits[4] 	4889
scalar bus_network.node[4].content_store 	misses[4] 	40849
scalar bus_network.node[4].content_store 	decision_yes[4] 	42
scalar bus_network.node[4].content_store 	decision_no[4] 	40806
scalar bus_network.node[4].content_store 	decision_ratio[4] 	0.0010282021151586
scalar bus_network.node[5].core_layer 	interests[5] 	52880
scalar bus_network.node[5].core_layer 	data[5] 	48140
scalar bus_network.node[5].content_store 	p_hit[5] 	0.089618003025719
scalar bus_network.node[5].content_store 	hits[5] 	4739
scalar bus_network.node[5].content_store 	misses[5] 	48141
scalar bus_network.node[5].content_store 	decision_yes[5] 	37
scalar bus_network.node[5].content_store 	decision_no[5] 	48103
scalar bus_network.node[5].content_store 	decision_ratio[5] 	0.00076859160781055
scalar bus_network.node[6].core_layer 	interests[6] 	59959
scalar bus_network.node[6].core_layer 	data[6] 	55229
scalar bus_network.node[6].content_store 	p_hit[6] 	0.078870561550393
scalar bus_network.node[6].content_store 	hits[6] 	4729
scalar bus_network.node[6].content_store 	misses[6] 	55230
scalar bus_network.node[6].content_store 	decision_yes[6] 	40
scalar bus_network.node[6].content_store 	decision_no[6] 	55189
scalar bus_network.node[6].content_store 	decision_ratio[6] 	0.00072425718372594
scalar bus_network.node[7].core_layer 	interests[7] 	66588
scalar bus_network.node[7].core_layer 	data[7] 	61708
scalar bus_network.node[7].content_store 	p_hit[7] 	0.073271460323181
scalar bus_network.node[7].content_store 	hits[7] 	4879
scalar bus_network.node[7].content_store 	misses[7] 	61709
scalar bus_network.node[7].content_store 	decision_yes[7] 	52
scalar bus_network.node[7].content_store 	decision_no[7] 	61656
scalar bus_network.node[7].content_store 	decision_ratio[7] 	0.00084267842095028
scalar bus_network.node[8].core_layer 	interests[8] 	72657
scalar bus_network.node[8].core_layer 	data[8] 	68737
scalar bus_network.node[8].content_store 	p_hit[8] 	0.05393836794803
scalar bus_network.node[8].content_store 	hits[8] 	3919
scalar bus_network.node[8].content_store 	misses[8] 	68738
scalar bus_network.node[8].content_store 	decision_yes[8] 	50
scalar bus_network.node[8].content_store 	decision_no[8] 	68687
scalar bus_network.node[8].content_store 	decision_ratio[8] 	0.00072741027394271
scalar bus_network.node[9].core_layer 	interests[9] 	79657
scalar bus_network.node[9].core_layer 	repo_load[9] 	75673
scalar bus_network.node[9].core_layer 	data[9] 	0
scalar bus_network.node[9].content_store 	p_hit[9] 	0.050014436898201
scalar bus_network.node[9].content_store 	hits[9] 	3984
scalar bus_network.node[9].content_store 	misses[9] 	75673
scalar bus_network.node[9].content_store 	decision_yes[9] 	43
scalar bus_network.node[9].content_store 	decision_no[9] 	75630
scalar bus_network.node[9].content_store 	decision_ratio[9] 	0.00056823437685832
scalar bus_network.client[0] 	hdistance[0] 	6.5245569620253
scalar bus_network.client[0] 	downloads[0] 	11850
scalar bus_network.client[0] 	avg_time[0] 	0.011848807714
scalar bus_network.client[1] 	hdistance[1] 	5.7816640605711
scalar bus_network.client[1] 	downloads[1] 	12151
scalar bus_network.client[1] 	avg_time[1] 	0.010365423034
scalar bus_network.client[2] 	hdistance[2] 	5.2261894807258
scalar bus_network.client[2] 	downloads[2] 	11959
scalar bus_network.client[2] 	avg_time[2] 	0.009231203661
scalar bus_network.client[3] 	hdistance[3] 	4.4951343258754
scalar bus_network.client[3] 	downloads[3] 	12023
scalar bus_network.client[3] 	avg_time[3] 	0.00778985857
scalar bus_network.client[4] 	hdistance[4] 	3.8747179272879
scalar bus_network.client[4] 	downloads[4] 	11965
scalar bus_network.client[4] 	avg_time[4] 	0.006554406554
scalar bus_network.client[5] 	hdistance[5] 	3.3118181061048
scalar bus_network.client[5] 	downloads[5] 	12007
scalar bus_network.client[5] 	avg_time[5] 	0.00541304367
scalar bus_network.client[6] 	hdistance[6] 	2.721572794899
scalar bus_network.client[6] 	downloads[6] 	12233
scalar bus_network.client[6] 	avg_time[6] 	0.004220384421
scalar bus_network.client[7] 	hdistance[7] 	2.0963298899807
scalar bus_network.client[7] 	downloads[7] 	11907
scalar bus_network.client[7] 	avg_time[7] 	0.002928358504
scalar bus_network.client[8] 	hdistance[8] 	1.4607875307629
scalar bus_network.client[8] 	downloads[8] 	12190
scalar bus_network.client[8] 	avg_time[8] 	0.001607937742
scalar bus_network.client[9] 	hdistance[9] 	0.78634490876986
scalar bus_network.client[9] 	downloads[9] 	11893
scalar bus_network.client[9] 	avg_time[9] 	0
