version 2
run General-259-20160901-02:42:10-8710
attr a 0.9
attr cd ffc0.25
attr configname General
attr cr lru
attr datetime 20160901-02:42:10
attr experiment General
attr fsize 1
attr inifile hw5115/scenario_Y/omnetp.ini
attr iterationvars "$name=tree_4_3, $un=04, $rep=7, $cd=ffc0.25, $cr=lru, $fsize=1, $a=0.9, $sl=nrr, $ttl=1000, $variance=0.05"
attr iterationvars2 "$name=tree_4_3, $un=04, $rep=7, $cd=ffc0.25, $cr=lru, $fsize=1, $a=0.9, $sl=nrr, $ttl=1000, $variance=0.05, $repetition=0"
attr measurement "$name=tree_4_3, $un=04, $rep=7, $cd=ffc0.25, $cr=lru, $fsize=1, $a=0.9, $sl=nrr, $ttl=1000, $variance=0.05"
attr name tree_4_3
attr network networks.${name}_u${un}_r${rep}_network
attr processid 8710
attr rep 7
attr repetition 0
attr replication #0
attr resultdir results
attr runnumber 259
attr seedset 7
attr sl nrr
attr ttl 1000
attr un 04
attr variance 0.05

scalar . 	a 	0.9
scalar . 	fsize 	1
scalar . 	rep 	7
scalar . 	ttl 	1000
scalar . 	un 	04
scalar . 	variance 	0.05
scalar tree_4_3_u04_r7_network.content_distribution 	repo-0 	0
scalar tree_4_3_u04_r7_network.content_distribution 	client-0 	13
scalar tree_4_3_u04_r7_network.content_distribution 	client-1 	14
scalar tree_4_3_u04_r7_network.content_distribution 	client-2 	15
scalar tree_4_3_u04_r7_network.content_distribution 	client-3 	16
scalar tree_4_3_u04_r7_network.content_distribution 	client-4 	17
scalar tree_4_3_u04_r7_network.content_distribution 	client-5 	18
scalar tree_4_3_u04_r7_network.content_distribution 	client-6 	19
scalar tree_4_3_u04_r7_network.content_distribution 	client-7 	20
scalar tree_4_3_u04_r7_network.content_distribution 	client-8 	21
scalar tree_4_3_u04_r7_network.content_distribution 	client-9 	22
scalar tree_4_3_u04_r7_network.content_distribution 	client-10 	23
scalar tree_4_3_u04_r7_network.content_distribution 	client-11 	24
scalar tree_4_3_u04_r7_network.content_distribution 	client-12 	25
scalar tree_4_3_u04_r7_network.content_distribution 	client-13 	26
scalar tree_4_3_u04_r7_network.content_distribution 	client-14 	27
scalar tree_4_3_u04_r7_network.content_distribution 	client-15 	28
scalar tree_4_3_u04_r7_network.content_distribution 	client-16 	29
scalar tree_4_3_u04_r7_network.content_distribution 	client-17 	30
scalar tree_4_3_u04_r7_network.content_distribution 	client-18 	31
scalar tree_4_3_u04_r7_network.content_distribution 	client-19 	32
scalar tree_4_3_u04_r7_network.content_distribution 	client-20 	33
scalar tree_4_3_u04_r7_network.content_distribution 	client-21 	34
scalar tree_4_3_u04_r7_network.content_distribution 	client-22 	35
scalar tree_4_3_u04_r7_network.content_distribution 	client-23 	36
scalar tree_4_3_u04_r7_network.content_distribution 	client-24 	37
scalar tree_4_3_u04_r7_network.content_distribution 	client-25 	38
scalar tree_4_3_u04_r7_network.content_distribution 	client-26 	39
scalar tree_4_3_u04_r7_network.content_distribution 	repo-0_card 	100000
scalar tree_4_3_u04_r7_network.content_distribution 	repo-0_price 	0
scalar tree_4_3_u04_r7_network.statistics 	stabilization_time 	1798.6
scalar tree_4_3_u04_r7_network.statistics 	p_hit 	0.22957462527624
scalar tree_4_3_u04_r7_network.statistics 	interests 	24682.125
scalar tree_4_3_u04_r7_network.statistics 	data 	16580.225
scalar tree_4_3_u04_r7_network.statistics 	hdistance 	2.6209572788927
scalar tree_4_3_u04_r7_network.statistics 	avg_time 	0.004093076115
scalar tree_4_3_u04_r7_network.statistics 	downloads 	324071
scalar tree_4_3_u04_r7_network.statistics 	total_cost 	0
scalar tree_4_3_u04_r7_network.statistics 	total_replicas 	100000
scalar tree_4_3_u04_r7_network.statistics 	inner_hit 	0.42558575127055
scalar tree_4_3_u04_r7_network.node[0].core_layer 	interests[0] 	189591
scalar tree_4_3_u04_r7_network.node[0].core_layer 	repo_load[0] 	186151
scalar tree_4_3_u04_r7_network.node[0].core_layer 	data[0] 	0
scalar tree_4_3_u04_r7_network.node[0].core_layer 	repo_int[0] 	186151
scalar tree_4_3_u04_r7_network.node[0].content_store 	p_hit[0] 	0.018144321196681
scalar tree_4_3_u04_r7_network.node[0].content_store 	hits[0] 	3440
scalar tree_4_3_u04_r7_network.node[0].content_store 	misses[0] 	186151
scalar tree_4_3_u04_r7_network.node[0].content_store 	decision_yes[0] 	203
scalar tree_4_3_u04_r7_network.node[0].content_store 	decision_no[0] 	185948
scalar tree_4_3_u04_r7_network.node[0].content_store 	decision_ratio[0] 	0.0010905125408942
scalar tree_4_3_u04_r7_network.node[1].core_layer 	interests[1] 	66894
scalar tree_4_3_u04_r7_network.node[1].core_layer 	data[1] 	65075
scalar tree_4_3_u04_r7_network.node[1].content_store 	p_hit[1] 	0.027177325320657
scalar tree_4_3_u04_r7_network.node[1].content_store 	hits[1] 	1818
scalar tree_4_3_u04_r7_network.node[1].content_store 	misses[1] 	65076
scalar tree_4_3_u04_r7_network.node[1].content_store 	decision_yes[1] 	92
scalar tree_4_3_u04_r7_network.node[1].content_store 	decision_no[1] 	64983
scalar tree_4_3_u04_r7_network.node[1].content_store 	decision_ratio[1] 	0.001413753361506
scalar tree_4_3_u04_r7_network.node[2].core_layer 	interests[2] 	71067
scalar tree_4_3_u04_r7_network.node[2].core_layer 	data[2] 	68066
scalar tree_4_3_u04_r7_network.node[2].content_store 	p_hit[2] 	0.042227756905455
scalar tree_4_3_u04_r7_network.node[2].content_store 	hits[2] 	3001
scalar tree_4_3_u04_r7_network.node[2].content_store 	misses[2] 	68066
scalar tree_4_3_u04_r7_network.node[2].content_store 	decision_yes[2] 	96
scalar tree_4_3_u04_r7_network.node[2].content_store 	decision_no[2] 	67970
scalar tree_4_3_u04_r7_network.node[2].content_store 	decision_ratio[2] 	0.0014103957923192
scalar tree_4_3_u04_r7_network.node[3].core_layer 	interests[3] 	71852
scalar tree_4_3_u04_r7_network.node[3].core_layer 	data[3] 	68742
scalar tree_4_3_u04_r7_network.node[3].content_store 	p_hit[3] 	0.043283415910483
scalar tree_4_3_u04_r7_network.node[3].content_store 	hits[3] 	3110
scalar tree_4_3_u04_r7_network.node[3].content_store 	misses[3] 	68742
scalar tree_4_3_u04_r7_network.node[3].content_store 	decision_yes[3] 	113
scalar tree_4_3_u04_r7_network.node[3].content_store 	decision_no[3] 	68629
scalar tree_4_3_u04_r7_network.node[3].content_store 	decision_ratio[3] 	0.0016438276453987
scalar tree_4_3_u04_r7_network.node[4].core_layer 	interests[4] 	26883
scalar tree_4_3_u04_r7_network.node[4].core_layer 	data[4] 	24982
scalar tree_4_3_u04_r7_network.node[4].content_store 	p_hit[4] 	0.070713834021501
scalar tree_4_3_u04_r7_network.node[4].content_store 	hits[4] 	1901
scalar tree_4_3_u04_r7_network.node[4].content_store 	misses[4] 	24982
scalar tree_4_3_u04_r7_network.node[4].content_store 	decision_yes[4] 	56
scalar tree_4_3_u04_r7_network.node[4].content_store 	decision_no[4] 	24926
scalar tree_4_3_u04_r7_network.node[4].content_store 	decision_ratio[4] 	0.0022416139620527
scalar tree_4_3_u04_r7_network.node[5].core_layer 	interests[5] 	35829
scalar tree_4_3_u04_r7_network.node[5].core_layer 	data[5] 	32628
scalar tree_4_3_u04_r7_network.node[5].content_store 	p_hit[5] 	0.089313126238522
scalar tree_4_3_u04_r7_network.node[5].content_store 	hits[5] 	3200
scalar tree_4_3_u04_r7_network.node[5].content_store 	misses[5] 	32629
scalar tree_4_3_u04_r7_network.node[5].content_store 	decision_yes[5] 	88
scalar tree_4_3_u04_r7_network.node[5].content_store 	decision_no[5] 	32540
scalar tree_4_3_u04_r7_network.node[5].content_store 	decision_ratio[5] 	0.0026970700012259
scalar tree_4_3_u04_r7_network.node[6].core_layer 	interests[6] 	21819
scalar tree_4_3_u04_r7_network.node[6].core_layer 	data[6] 	18414
scalar tree_4_3_u04_r7_network.node[6].content_store 	p_hit[6] 	0.15601081626106
scalar tree_4_3_u04_r7_network.node[6].content_store 	hits[6] 	3404
scalar tree_4_3_u04_r7_network.node[6].content_store 	misses[6] 	18415
scalar tree_4_3_u04_r7_network.node[6].content_store 	decision_yes[6] 	71
scalar tree_4_3_u04_r7_network.node[6].content_store 	decision_no[6] 	18343
scalar tree_4_3_u04_r7_network.node[6].content_store 	decision_ratio[6] 	0.003855761920278
scalar tree_4_3_u04_r7_network.node[7].core_layer 	interests[7] 	34877
scalar tree_4_3_u04_r7_network.node[7].core_layer 	data[7] 	32432
scalar tree_4_3_u04_r7_network.node[7].content_store 	p_hit[7] 	0.07010350660894
scalar tree_4_3_u04_r7_network.node[7].content_store 	hits[7] 	2445
scalar tree_4_3_u04_r7_network.node[7].content_store 	misses[7] 	32432
scalar tree_4_3_u04_r7_network.node[7].content_store 	decision_yes[7] 	70
scalar tree_4_3_u04_r7_network.node[7].content_store 	decision_no[7] 	32362
scalar tree_4_3_u04_r7_network.node[7].content_store 	decision_ratio[7] 	0.0021583621114948
scalar tree_4_3_u04_r7_network.node[8].core_layer 	interests[8] 	26700
scalar tree_4_3_u04_r7_network.node[8].core_layer 	data[8] 	24245
scalar tree_4_3_u04_r7_network.node[8].content_store 	p_hit[8] 	0.091947565543071
scalar tree_4_3_u04_r7_network.node[8].content_store 	hits[8] 	2455
scalar tree_4_3_u04_r7_network.node[8].content_store 	misses[8] 	24245
scalar tree_4_3_u04_r7_network.node[8].content_store 	decision_yes[8] 	48
scalar tree_4_3_u04_r7_network.node[8].content_store 	decision_no[8] 	24197
scalar tree_4_3_u04_r7_network.node[8].content_store 	decision_ratio[8] 	0.00197978964735
scalar tree_4_3_u04_r7_network.node[9].core_layer 	interests[9] 	20650
scalar tree_4_3_u04_r7_network.node[9].core_layer 	data[9] 	17386
scalar tree_4_3_u04_r7_network.node[9].content_store 	p_hit[9] 	0.15811138014528
scalar tree_4_3_u04_r7_network.node[9].content_store 	hits[9] 	3265
scalar tree_4_3_u04_r7_network.node[9].content_store 	misses[9] 	17385
scalar tree_4_3_u04_r7_network.node[9].content_store 	decision_yes[9] 	68
scalar tree_4_3_u04_r7_network.node[9].content_store 	decision_no[9] 	17318
scalar tree_4_3_u04_r7_network.node[9].content_store 	decision_ratio[9] 	0.0039111929138387
scalar tree_4_3_u04_r7_network.node[10].core_layer 	interests[10] 	26356
scalar tree_4_3_u04_r7_network.node[10].core_layer 	data[10] 	24079
scalar tree_4_3_u04_r7_network.node[10].content_store 	p_hit[10] 	0.086393989983306
scalar tree_4_3_u04_r7_network.node[10].content_store 	hits[10] 	2277
scalar tree_4_3_u04_r7_network.node[10].content_store 	misses[10] 	24079
scalar tree_4_3_u04_r7_network.node[10].content_store 	decision_yes[10] 	48
scalar tree_4_3_u04_r7_network.node[10].content_store 	decision_no[10] 	24031
scalar tree_4_3_u04_r7_network.node[10].content_store 	decision_ratio[10] 	0.0019934382657087
scalar tree_4_3_u04_r7_network.node[11].core_layer 	interests[11] 	27954
scalar tree_4_3_u04_r7_network.node[11].core_layer 	data[11] 	25264
scalar tree_4_3_u04_r7_network.node[11].content_store 	p_hit[11] 	0.096229519925592
scalar tree_4_3_u04_r7_network.node[11].content_store 	hits[11] 	2690
scalar tree_4_3_u04_r7_network.node[11].content_store 	misses[11] 	25264
scalar tree_4_3_u04_r7_network.node[11].content_store 	decision_yes[11] 	88
scalar tree_4_3_u04_r7_network.node[11].content_store 	decision_no[11] 	25176
scalar tree_4_3_u04_r7_network.node[11].content_store 	decision_ratio[11] 	0.0034832172260925
scalar tree_4_3_u04_r7_network.node[12].core_layer 	interests[12] 	27935
scalar tree_4_3_u04_r7_network.node[12].core_layer 	data[12] 	25186
scalar tree_4_3_u04_r7_network.node[12].content_store 	p_hit[12] 	0.098407016287811
scalar tree_4_3_u04_r7_network.node[12].content_store 	hits[12] 	2749
scalar tree_4_3_u04_r7_network.node[12].content_store 	misses[12] 	25186
scalar tree_4_3_u04_r7_network.node[12].content_store 	decision_yes[12] 	73
scalar tree_4_3_u04_r7_network.node[12].content_store 	decision_no[12] 	25113
scalar tree_4_3_u04_r7_network.node[12].content_store 	decision_ratio[12] 	0.002898435638847
scalar tree_4_3_u04_r7_network.node[13].core_layer 	interests[13] 	12344
scalar tree_4_3_u04_r7_network.node[13].core_layer 	data[13] 	8670
scalar tree_4_3_u04_r7_network.node[13].content_store 	p_hit[13] 	0.29763447828905
scalar tree_4_3_u04_r7_network.node[13].content_store 	hits[13] 	3674
scalar tree_4_3_u04_r7_network.node[13].content_store 	misses[13] 	8670
scalar tree_4_3_u04_r7_network.node[13].content_store 	decision_yes[13] 	29
scalar tree_4_3_u04_r7_network.node[13].content_store 	decision_no[13] 	8641
scalar tree_4_3_u04_r7_network.node[13].content_store 	decision_ratio[13] 	0.0033448673587082
scalar tree_4_3_u04_r7_network.node[14].core_layer 	interests[14] 	12606
scalar tree_4_3_u04_r7_network.node[14].core_layer 	data[14] 	8888
scalar tree_4_3_u04_r7_network.node[14].content_store 	p_hit[14] 	0.29493891797557
scalar tree_4_3_u04_r7_network.node[14].content_store 	hits[14] 	3718
scalar tree_4_3_u04_r7_network.node[14].content_store 	misses[14] 	8888
scalar tree_4_3_u04_r7_network.node[14].content_store 	decision_yes[14] 	29
scalar tree_4_3_u04_r7_network.node[14].content_store 	decision_no[14] 	8859
scalar tree_4_3_u04_r7_network.node[14].content_store 	decision_ratio[14] 	0.0032628262826283
scalar tree_4_3_u04_r7_network.node[15].core_layer 	interests[15] 	12301
scalar tree_4_3_u04_r7_network.node[15].core_layer 	data[15] 	8826
scalar tree_4_3_u04_r7_network.node[15].content_store 	p_hit[15] 	0.28249735793838
scalar tree_4_3_u04_r7_network.node[15].content_store 	hits[15] 	3475
scalar tree_4_3_u04_r7_network.node[15].content_store 	misses[15] 	8826
scalar tree_4_3_u04_r7_network.node[15].content_store 	decision_yes[15] 	28
scalar tree_4_3_u04_r7_network.node[15].content_store 	decision_no[15] 	8798
scalar tree_4_3_u04_r7_network.node[15].content_store 	decision_ratio[15] 	0.0031724450487197
scalar tree_4_3_u04_r7_network.node[16].core_layer 	interests[16] 	12456
scalar tree_4_3_u04_r7_network.node[16].core_layer 	data[16] 	8658
scalar tree_4_3_u04_r7_network.node[16].content_store 	p_hit[16] 	0.30491329479769
scalar tree_4_3_u04_r7_network.node[16].content_store 	hits[16] 	3798
scalar tree_4_3_u04_r7_network.node[16].content_store 	misses[16] 	8658
scalar tree_4_3_u04_r7_network.node[16].content_store 	decision_yes[16] 	34
scalar tree_4_3_u04_r7_network.node[16].content_store 	decision_no[16] 	8624
scalar tree_4_3_u04_r7_network.node[16].content_store 	decision_ratio[16] 	0.0039270039270039
scalar tree_4_3_u04_r7_network.node[17].core_layer 	interests[17] 	12662
scalar tree_4_3_u04_r7_network.node[17].core_layer 	data[17] 	8794
scalar tree_4_3_u04_r7_network.node[17].content_store 	p_hit[17] 	0.30548096667193
scalar tree_4_3_u04_r7_network.node[17].content_store 	hits[17] 	3868
scalar tree_4_3_u04_r7_network.node[17].content_store 	misses[17] 	8794
scalar tree_4_3_u04_r7_network.node[17].content_store 	decision_yes[17] 	28
scalar tree_4_3_u04_r7_network.node[17].content_store 	decision_no[17] 	8766
scalar tree_4_3_u04_r7_network.node[17].content_store 	decision_ratio[17] 	0.003183989083466
scalar tree_4_3_u04_r7_network.node[18].core_layer 	interests[18] 	12984
scalar tree_4_3_u04_r7_network.node[18].core_layer 	data[18] 	8793
scalar tree_4_3_u04_r7_network.node[18].content_store 	p_hit[18] 	0.32270486752927
scalar tree_4_3_u04_r7_network.node[18].content_store 	hits[18] 	4190
scalar tree_4_3_u04_r7_network.node[18].content_store 	misses[18] 	8794
scalar tree_4_3_u04_r7_network.node[18].content_store 	decision_yes[18] 	28
scalar tree_4_3_u04_r7_network.node[18].content_store 	decision_no[18] 	8765
scalar tree_4_3_u04_r7_network.node[18].content_store 	decision_ratio[18] 	0.0031843511884454
scalar tree_4_3_u04_r7_network.node[19].core_layer 	interests[19] 	12564
scalar tree_4_3_u04_r7_network.node[19].core_layer 	data[19] 	8793
scalar tree_4_3_u04_r7_network.node[19].content_store 	p_hit[19] 	0.30014326647564
scalar tree_4_3_u04_r7_network.node[19].content_store 	hits[19] 	3771
scalar tree_4_3_u04_r7_network.node[19].content_store 	misses[19] 	8793
scalar tree_4_3_u04_r7_network.node[19].content_store 	decision_yes[19] 	26
scalar tree_4_3_u04_r7_network.node[19].content_store 	decision_no[19] 	8767
scalar tree_4_3_u04_r7_network.node[19].content_store 	decision_ratio[19] 	0.0029568975321278
scalar tree_4_3_u04_r7_network.node[20].core_layer 	interests[20] 	13072
scalar tree_4_3_u04_r7_network.node[20].core_layer 	data[20] 	8873
scalar tree_4_3_u04_r7_network.node[20].content_store 	p_hit[20] 	0.32122093023256
scalar tree_4_3_u04_r7_network.node[20].content_store 	hits[20] 	4199
scalar tree_4_3_u04_r7_network.node[20].content_store 	misses[20] 	8873
scalar tree_4_3_u04_r7_network.node[20].content_store 	decision_yes[20] 	24
scalar tree_4_3_u04_r7_network.node[20].content_store 	decision_no[20] 	8849
scalar tree_4_3_u04_r7_network.node[20].content_store 	decision_ratio[20] 	0.0027048348923701
scalar tree_4_3_u04_r7_network.node[21].core_layer 	interests[21] 	12318
scalar tree_4_3_u04_r7_network.node[21].core_layer 	data[21] 	8734
scalar tree_4_3_u04_r7_network.node[21].content_store 	p_hit[21] 	0.29087514206852
scalar tree_4_3_u04_r7_network.node[21].content_store 	hits[21] 	3583
scalar tree_4_3_u04_r7_network.node[21].content_store 	misses[21] 	8735
scalar tree_4_3_u04_r7_network.node[21].content_store 	decision_yes[21] 	32
scalar tree_4_3_u04_r7_network.node[21].content_store 	decision_no[21] 	8702
scalar tree_4_3_u04_r7_network.node[21].content_store 	decision_ratio[21] 	0.0036638424547744
scalar tree_4_3_u04_r7_network.node[22].core_layer 	interests[22] 	12556
scalar tree_4_3_u04_r7_network.node[22].core_layer 	data[22] 	8868
scalar tree_4_3_u04_r7_network.node[22].content_store 	p_hit[22] 	0.2937241159605
scalar tree_4_3_u04_r7_network.node[22].content_store 	hits[22] 	3688
scalar tree_4_3_u04_r7_network.node[22].content_store 	misses[22] 	8868
scalar tree_4_3_u04_r7_network.node[22].content_store 	decision_yes[22] 	20
scalar tree_4_3_u04_r7_network.node[22].content_store 	decision_no[22] 	8848
scalar tree_4_3_u04_r7_network.node[22].content_store 	decision_ratio[22] 	0.002255299954894
scalar tree_4_3_u04_r7_network.node[23].core_layer 	interests[23] 	12420
scalar tree_4_3_u04_r7_network.node[23].core_layer 	data[23] 	8817
scalar tree_4_3_u04_r7_network.node[23].content_store 	p_hit[23] 	0.29009661835749
scalar tree_4_3_u04_r7_network.node[23].content_store 	hits[23] 	3603
scalar tree_4_3_u04_r7_network.node[23].content_store 	misses[23] 	8817
scalar tree_4_3_u04_r7_network.node[23].content_store 	decision_yes[23] 	25
scalar tree_4_3_u04_r7_network.node[23].content_store 	decision_no[23] 	8792
scalar tree_4_3_u04_r7_network.node[23].content_store 	decision_ratio[23] 	0.0028354315526823
scalar tree_4_3_u04_r7_network.node[24].core_layer 	interests[24] 	12744
scalar tree_4_3_u04_r7_network.node[24].core_layer 	data[24] 	8674
scalar tree_4_3_u04_r7_network.node[24].content_store 	p_hit[24] 	0.31936597614564
scalar tree_4_3_u04_r7_network.node[24].content_store 	hits[24] 	4070
scalar tree_4_3_u04_r7_network.node[24].content_store 	misses[24] 	8674
scalar tree_4_3_u04_r7_network.node[24].content_store 	decision_yes[24] 	28
scalar tree_4_3_u04_r7_network.node[24].content_store 	decision_no[24] 	8646
scalar tree_4_3_u04_r7_network.node[24].content_store 	decision_ratio[24] 	0.0032280378141573
scalar tree_4_3_u04_r7_network.node[25].core_layer 	interests[25] 	12878
scalar tree_4_3_u04_r7_network.node[25].core_layer 	data[25] 	8825
scalar tree_4_3_u04_r7_network.node[25].content_store 	p_hit[25] 	0.31472278304084
scalar tree_4_3_u04_r7_network.node[25].content_store 	hits[25] 	4053
scalar tree_4_3_u04_r7_network.node[25].content_store 	misses[25] 	8825
scalar tree_4_3_u04_r7_network.node[25].content_store 	decision_yes[25] 	26
scalar tree_4_3_u04_r7_network.node[25].content_store 	decision_no[25] 	8799
scalar tree_4_3_u04_r7_network.node[25].content_store 	decision_ratio[25] 	0.0029461756373938
scalar tree_4_3_u04_r7_network.node[26].core_layer 	interests[26] 	12348
scalar tree_4_3_u04_r7_network.node[26].core_layer 	data[26] 	8831
scalar tree_4_3_u04_r7_network.node[26].content_store 	p_hit[26] 	0.28474246841594
scalar tree_4_3_u04_r7_network.node[26].content_store 	hits[26] 	3516
scalar tree_4_3_u04_r7_network.node[26].content_store 	misses[26] 	8832
scalar tree_4_3_u04_r7_network.node[26].content_store 	decision_yes[26] 	25
scalar tree_4_3_u04_r7_network.node[26].content_store 	decision_no[26] 	8806
scalar tree_4_3_u04_r7_network.node[26].content_store 	decision_ratio[26] 	0.0028309364737855
scalar tree_4_3_u04_r7_network.node[27].core_layer 	interests[27] 	12639
scalar tree_4_3_u04_r7_network.node[27].core_layer 	data[27] 	8844
scalar tree_4_3_u04_r7_network.node[27].content_store 	p_hit[27] 	0.30026109660574
scalar tree_4_3_u04_r7_network.node[27].content_store 	hits[27] 	3795
scalar tree_4_3_u04_r7_network.node[27].content_store 	misses[27] 	8844
scalar tree_4_3_u04_r7_network.node[27].content_store 	decision_yes[27] 	29
scalar tree_4_3_u04_r7_network.node[27].content_store 	decision_no[27] 	8815
scalar tree_4_3_u04_r7_network.node[27].content_store 	decision_ratio[27] 	0.0032790592492085
scalar tree_4_3_u04_r7_network.node[28].core_layer 	interests[28] 	12409
scalar tree_4_3_u04_r7_network.node[28].core_layer 	data[28] 	8817
scalar tree_4_3_u04_r7_network.node[28].content_store 	p_hit[28] 	0.28946732210492
scalar tree_4_3_u04_r7_network.node[28].content_store 	hits[28] 	3592
scalar tree_4_3_u04_r7_network.node[28].content_store 	misses[28] 	8817
scalar tree_4_3_u04_r7_network.node[28].content_store 	decision_yes[28] 	30
scalar tree_4_3_u04_r7_network.node[28].content_store 	decision_no[28] 	8787
scalar tree_4_3_u04_r7_network.node[28].content_store 	decision_ratio[28] 	0.0034025178632188
scalar tree_4_3_u04_r7_network.node[29].core_layer 	interests[29] 	12739
scalar tree_4_3_u04_r7_network.node[29].core_layer 	data[29] 	8801
scalar tree_4_3_u04_r7_network.node[29].content_store 	p_hit[29] 	0.30912944501138
scalar tree_4_3_u04_r7_network.node[29].content_store 	hits[29] 	3938
scalar tree_4_3_u04_r7_network.node[29].content_store 	misses[29] 	8801
scalar tree_4_3_u04_r7_network.node[29].content_store 	decision_yes[29] 	27
scalar tree_4_3_u04_r7_network.node[29].content_store 	decision_no[29] 	8774
scalar tree_4_3_u04_r7_network.node[29].content_store 	decision_ratio[29] 	0.0030678332007726
scalar tree_4_3_u04_r7_network.node[30].core_layer 	interests[30] 	12399
scalar tree_4_3_u04_r7_network.node[30].core_layer 	data[30] 	8706
scalar tree_4_3_u04_r7_network.node[30].content_store 	p_hit[30] 	0.29792725219776
scalar tree_4_3_u04_r7_network.node[30].content_store 	hits[30] 	3694
scalar tree_4_3_u04_r7_network.node[30].content_store 	misses[30] 	8705
scalar tree_4_3_u04_r7_network.node[30].content_store 	decision_yes[30] 	32
scalar tree_4_3_u04_r7_network.node[30].content_store 	decision_no[30] 	8674
scalar tree_4_3_u04_r7_network.node[30].content_store 	decision_ratio[30] 	0.003675626005054
scalar tree_4_3_u04_r7_network.node[31].core_layer 	interests[31] 	12239
scalar tree_4_3_u04_r7_network.node[31].core_layer 	data[31] 	8678
scalar tree_4_3_u04_r7_network.node[31].content_store 	p_hit[31] 	0.29095514339407
scalar tree_4_3_u04_r7_network.node[31].content_store 	hits[31] 	3561
scalar tree_4_3_u04_r7_network.node[31].content_store 	misses[31] 	8678
scalar tree_4_3_u04_r7_network.node[31].content_store 	decision_yes[31] 	46
scalar tree_4_3_u04_r7_network.node[31].content_store 	decision_no[31] 	8632
scalar tree_4_3_u04_r7_network.node[31].content_store 	decision_ratio[31] 	0.0053007605439041
scalar tree_4_3_u04_r7_network.node[32].core_layer 	interests[32] 	12935
scalar tree_4_3_u04_r7_network.node[32].core_layer 	data[32] 	8870
scalar tree_4_3_u04_r7_network.node[32].content_store 	p_hit[32] 	0.31426362582141
scalar tree_4_3_u04_r7_network.node[32].content_store 	hits[32] 	4065
scalar tree_4_3_u04_r7_network.node[32].content_store 	misses[32] 	8870
scalar tree_4_3_u04_r7_network.node[32].content_store 	decision_yes[32] 	28
scalar tree_4_3_u04_r7_network.node[32].content_store 	decision_no[32] 	8842
scalar tree_4_3_u04_r7_network.node[32].content_store 	decision_ratio[32] 	0.0031567080045096
scalar tree_4_3_u04_r7_network.node[33].core_layer 	interests[33] 	12875
scalar tree_4_3_u04_r7_network.node[33].core_layer 	data[33] 	8737
scalar tree_4_3_u04_r7_network.node[33].content_store 	p_hit[33] 	0.32139805825243
scalar tree_4_3_u04_r7_network.node[33].content_store 	hits[33] 	4138
scalar tree_4_3_u04_r7_network.node[33].content_store 	misses[33] 	8737
scalar tree_4_3_u04_r7_network.node[33].content_store 	decision_yes[33] 	27
scalar tree_4_3_u04_r7_network.node[33].content_store 	decision_no[33] 	8710
scalar tree_4_3_u04_r7_network.node[33].content_store 	decision_ratio[33] 	0.0030903055968868
scalar tree_4_3_u04_r7_network.node[34].core_layer 	interests[34] 	12571
scalar tree_4_3_u04_r7_network.node[34].core_layer 	data[34] 	8706
scalar tree_4_3_u04_r7_network.node[34].content_store 	p_hit[34] 	0.30745366319306
scalar tree_4_3_u04_r7_network.node[34].content_store 	hits[34] 	3865
scalar tree_4_3_u04_r7_network.node[34].content_store 	misses[34] 	8706
scalar tree_4_3_u04_r7_network.node[34].content_store 	decision_yes[34] 	29
scalar tree_4_3_u04_r7_network.node[34].content_store 	decision_no[34] 	8677
scalar tree_4_3_u04_r7_network.node[34].content_store 	decision_ratio[34] 	0.0033310360670802
scalar tree_4_3_u04_r7_network.node[35].core_layer 	interests[35] 	12306
scalar tree_4_3_u04_r7_network.node[35].core_layer 	data[35] 	8692
scalar tree_4_3_u04_r7_network.node[35].content_store 	p_hit[35] 	0.2936778807086
scalar tree_4_3_u04_r7_network.node[35].content_store 	hits[35] 	3614
scalar tree_4_3_u04_r7_network.node[35].content_store 	misses[35] 	8692
scalar tree_4_3_u04_r7_network.node[35].content_store 	decision_yes[35] 	30
scalar tree_4_3_u04_r7_network.node[35].content_store 	decision_no[35] 	8662
scalar tree_4_3_u04_r7_network.node[35].content_store 	decision_ratio[35] 	0.0034514496088357
scalar tree_4_3_u04_r7_network.node[36].core_layer 	interests[36] 	12453
scalar tree_4_3_u04_r7_network.node[36].core_layer 	data[36] 	8774
scalar tree_4_3_u04_r7_network.node[36].content_store 	p_hit[36] 	0.29543081988276
scalar tree_4_3_u04_r7_network.node[36].content_store 	hits[36] 	3679
scalar tree_4_3_u04_r7_network.node[36].content_store 	misses[36] 	8774
scalar tree_4_3_u04_r7_network.node[36].content_store 	decision_yes[36] 	34
scalar tree_4_3_u04_r7_network.node[36].content_store 	decision_no[36] 	8740
scalar tree_4_3_u04_r7_network.node[36].content_store 	decision_ratio[36] 	0.0038750854798268
scalar tree_4_3_u04_r7_network.node[37].core_layer 	interests[37] 	12319
scalar tree_4_3_u04_r7_network.node[37].core_layer 	data[37] 	8710
scalar tree_4_3_u04_r7_network.node[37].content_store 	p_hit[37] 	0.29296209107882
scalar tree_4_3_u04_r7_network.node[37].content_store 	hits[37] 	3609
scalar tree_4_3_u04_r7_network.node[37].content_store 	misses[37] 	8710
scalar tree_4_3_u04_r7_network.node[37].content_store 	decision_yes[37] 	26
scalar tree_4_3_u04_r7_network.node[37].content_store 	decision_no[37] 	8684
scalar tree_4_3_u04_r7_network.node[37].content_store 	decision_ratio[37] 	0.0029850746268657
scalar tree_4_3_u04_r7_network.node[38].core_layer 	interests[38] 	12378
scalar tree_4_3_u04_r7_network.node[38].core_layer 	data[38] 	8763
scalar tree_4_3_u04_r7_network.node[38].content_store 	p_hit[38] 	0.29205041202133
scalar tree_4_3_u04_r7_network.node[38].content_store 	hits[38] 	3615
scalar tree_4_3_u04_r7_network.node[38].content_store 	misses[38] 	8763
scalar tree_4_3_u04_r7_network.node[38].content_store 	decision_yes[38] 	33
scalar tree_4_3_u04_r7_network.node[38].content_store 	decision_no[38] 	8730
scalar tree_4_3_u04_r7_network.node[38].content_store 	decision_ratio[38] 	0.0037658336186238
scalar tree_4_3_u04_r7_network.node[39].core_layer 	interests[39] 	12363
scalar tree_4_3_u04_r7_network.node[39].core_layer 	data[39] 	8568
scalar tree_4_3_u04_r7_network.node[39].content_store 	p_hit[39] 	0.30688344253013
scalar tree_4_3_u04_r7_network.node[39].content_store 	hits[39] 	3794
scalar tree_4_3_u04_r7_network.node[39].content_store 	misses[39] 	8569
scalar tree_4_3_u04_r7_network.node[39].content_store 	decision_yes[39] 	31
scalar tree_4_3_u04_r7_network.node[39].content_store 	decision_no[39] 	8537
scalar tree_4_3_u04_r7_network.node[39].content_store 	decision_ratio[39] 	0.0036181139122316
scalar tree_4_3_u04_r7_network.client[13] 	hdistance[13] 	2.6587208326339
scalar tree_4_3_u04_r7_network.client[13] 	downloads[13] 	11914
scalar tree_4_3_u04_r7_network.client[13] 	avg_time[13] 	0.004129424629
scalar tree_4_3_u04_r7_network.client[14] 	hdistance[14] 	2.641845703125
scalar tree_4_3_u04_r7_network.client[14] 	downloads[14] 	12288
scalar tree_4_3_u04_r7_network.client[14] 	avg_time[14] 	0.004106605031
scalar tree_4_3_u04_r7_network.client[15] 	hdistance[15] 	2.6902210314802
scalar tree_4_3_u04_r7_network.client[15] 	downloads[15] 	11944
scalar tree_4_3_u04_r7_network.client[15] 	avg_time[15] 	0.004182013065
scalar tree_4_3_u04_r7_network.client[16] 	hdistance[16] 	2.6098379921095
scalar tree_4_3_u04_r7_network.client[16] 	downloads[16] 	11913
scalar tree_4_3_u04_r7_network.client[16] 	avg_time[16] 	0.004098880615
scalar tree_4_3_u04_r7_network.client[17] 	hdistance[17] 	2.6169544740973
scalar tree_4_3_u04_r7_network.client[17] 	downloads[17] 	12103
scalar tree_4_3_u04_r7_network.client[17] 	avg_time[17] 	0.004111539588
scalar tree_4_3_u04_r7_network.client[18] 	hdistance[18] 	2.558009668278
scalar tree_4_3_u04_r7_network.client[18] 	downloads[18] 	11998
scalar tree_4_3_u04_r7_network.client[18] 	avg_time[18] 	0.004015666283
scalar tree_4_3_u04_r7_network.client[19] 	hdistance[19] 	2.6201473387965
scalar tree_4_3_u04_r7_network.client[19] 	downloads[19] 	12081
scalar tree_4_3_u04_r7_network.client[19] 	avg_time[19] 	0.004112735993
scalar tree_4_3_u04_r7_network.client[20] 	hdistance[20] 	2.5638386186286
scalar tree_4_3_u04_r7_network.client[20] 	downloads[20] 	12046
scalar tree_4_3_u04_r7_network.client[20] 	avg_time[20] 	0.004026524965
scalar tree_4_3_u04_r7_network.client[21] 	hdistance[21] 	2.6472278566599
scalar tree_4_3_u04_r7_network.client[21] 	downloads[21] 	11832
scalar tree_4_3_u04_r7_network.client[21] 	avg_time[21] 	0.004159589174
scalar tree_4_3_u04_r7_network.client[22] 	hdistance[22] 	2.6319507186858
scalar tree_4_3_u04_r7_network.client[22] 	downloads[22] 	12175
scalar tree_4_3_u04_r7_network.client[22] 	avg_time[22] 	0.004117450736
scalar tree_4_3_u04_r7_network.client[23] 	hdistance[23] 	2.6540979530952
scalar tree_4_3_u04_r7_network.client[23] 	downloads[23] 	12067
scalar tree_4_3_u04_r7_network.client[23] 	avg_time[23] 	0.004149827108
scalar tree_4_3_u04_r7_network.client[24] 	hdistance[24] 	2.5885038038884
scalar tree_4_3_u04_r7_network.client[24] 	downloads[24] 	11830
scalar tree_4_3_u04_r7_network.client[24] 	avg_time[24] 	0.004020791629
scalar tree_4_3_u04_r7_network.client[25] 	hdistance[25] 	2.581764122894
scalar tree_4_3_u04_r7_network.client[25] 	downloads[25] 	12108
scalar tree_4_3_u04_r7_network.client[25] 	avg_time[25] 	0.004014037248
scalar tree_4_3_u04_r7_network.client[26] 	hdistance[26] 	2.6571736964464
scalar tree_4_3_u04_r7_network.client[26] 	downloads[26] 	12044
scalar tree_4_3_u04_r7_network.client[26] 	avg_time[26] 	0.004158250054
scalar tree_4_3_u04_r7_network.client[27] 	hdistance[27] 	2.5963684824255
scalar tree_4_3_u04_r7_network.client[27] 	downloads[27] 	12006
scalar tree_4_3_u04_r7_network.client[27] 	avg_time[27] 	0.004030315171
scalar tree_4_3_u04_r7_network.client[28] 	hdistance[28] 	2.6429346465236
scalar tree_4_3_u04_r7_network.client[28] 	downloads[28] 	11981
scalar tree_4_3_u04_r7_network.client[28] 	avg_time[28] 	0.004132206332
scalar tree_4_3_u04_r7_network.client[29] 	hdistance[29] 	2.5684009308511
scalar tree_4_3_u04_r7_network.client[29] 	downloads[29] 	12032
scalar tree_4_3_u04_r7_network.client[29] 	avg_time[29] 	0.003996173843
scalar tree_4_3_u04_r7_network.client[30] 	hdistance[30] 	2.6160766837636
scalar tree_4_3_u04_r7_network.client[30] 	downloads[30] 	11893
scalar tree_4_3_u04_r7_network.client[30] 	avg_time[30] 	0.004084752778
scalar tree_4_3_u04_r7_network.client[31] 	hdistance[31] 	2.6463363689531
scalar tree_4_3_u04_r7_network.client[31] 	downloads[31] 	11969
scalar tree_4_3_u04_r7_network.client[31] 	avg_time[31] 	0.00413952413
scalar tree_4_3_u04_r7_network.client[32] 	hdistance[32] 	2.6021399176955
scalar tree_4_3_u04_r7_network.client[32] 	downloads[32] 	12150
scalar tree_4_3_u04_r7_network.client[32] 	avg_time[32] 	0.004040819971
scalar tree_4_3_u04_r7_network.client[33] 	hdistance[33] 	2.5753618366329
scalar tree_4_3_u04_r7_network.client[33] 	downloads[33] 	12022
scalar tree_4_3_u04_r7_network.client[33] 	avg_time[33] 	0.00400931323
scalar tree_4_3_u04_r7_network.client[34] 	hdistance[34] 	2.6020484636523
scalar tree_4_3_u04_r7_network.client[34] 	downloads[34] 	12009
scalar tree_4_3_u04_r7_network.client[34] 	avg_time[34] 	0.004068112554
scalar tree_4_3_u04_r7_network.client[35] 	hdistance[35] 	2.642622674859
scalar tree_4_3_u04_r7_network.client[35] 	downloads[35] 	11881
scalar tree_4_3_u04_r7_network.client[35] 	avg_time[35] 	0.004126417366
scalar tree_4_3_u04_r7_network.client[36] 	hdistance[36] 	2.6386414717389
scalar tree_4_3_u04_r7_network.client[36] 	downloads[36] 	12013
scalar tree_4_3_u04_r7_network.client[36] 	avg_time[36] 	0.004121199009
scalar tree_4_3_u04_r7_network.client[37] 	hdistance[37] 	2.6610354681459
scalar tree_4_3_u04_r7_network.client[37] 	downloads[37] 	11898
scalar tree_4_3_u04_r7_network.client[37] 	avg_time[37] 	0.004151451029
scalar tree_4_3_u04_r7_network.client[38] 	hdistance[38] 	2.6534852546917
scalar tree_4_3_u04_r7_network.client[38] 	downloads[38] 	11936
scalar tree_4_3_u04_r7_network.client[38] 	avg_time[38] 	0.004144936663
scalar tree_4_3_u04_r7_network.client[39] 	hdistance[39] 	2.60010051935
scalar tree_4_3_u04_r7_network.client[39] 	downloads[39] 	11938
scalar tree_4_3_u04_r7_network.client[39] 	avg_time[39] 	0.004064496914
