version 2
run General-268-20160901-03:00:49-8710
attr a 0.9
attr cd ffc0.25
attr configname General
attr cr lru
attr datetime 20160901-03:00:49
attr experiment General
attr fsize 1
attr inifile hw5115/scenario_Y/omnetp.ini
attr iterationvars "$name=tree_4_3, $un=04, $rep=10, $cd=ffc0.25, $cr=lru, $fsize=1, $a=0.9, $sl=nrr, $ttl=1000, $variance=0.05"
attr iterationvars2 "$name=tree_4_3, $un=04, $rep=10, $cd=ffc0.25, $cr=lru, $fsize=1, $a=0.9, $sl=nrr, $ttl=1000, $variance=0.05, $repetition=0"
attr measurement "$name=tree_4_3, $un=04, $rep=10, $cd=ffc0.25, $cr=lru, $fsize=1, $a=0.9, $sl=nrr, $ttl=1000, $variance=0.05"
attr name tree_4_3
attr network networks.${name}_u${un}_r${rep}_network
attr processid 8710
attr rep 10
attr repetition 0
attr replication #0
attr resultdir results
attr runnumber 268
attr seedset 10
attr sl nrr
attr ttl 1000
attr un 04
attr variance 0.05

scalar . 	a 	0.9
scalar . 	fsize 	1
scalar . 	rep 	10
scalar . 	ttl 	1000
scalar . 	un 	04
scalar . 	variance 	0.05
scalar tree_4_3_u04_r10_network.content_distribution 	repo-0 	0
scalar tree_4_3_u04_r10_network.content_distribution 	client-0 	13
scalar tree_4_3_u04_r10_network.content_distribution 	client-1 	14
scalar tree_4_3_u04_r10_network.content_distribution 	client-2 	15
scalar tree_4_3_u04_r10_network.content_distribution 	client-3 	16
scalar tree_4_3_u04_r10_network.content_distribution 	client-4 	17
scalar tree_4_3_u04_r10_network.content_distribution 	client-5 	18
scalar tree_4_3_u04_r10_network.content_distribution 	client-6 	19
scalar tree_4_3_u04_r10_network.content_distribution 	client-7 	20
scalar tree_4_3_u04_r10_network.content_distribution 	client-8 	21
scalar tree_4_3_u04_r10_network.content_distribution 	client-9 	22
scalar tree_4_3_u04_r10_network.content_distribution 	client-10 	23
scalar tree_4_3_u04_r10_network.content_distribution 	client-11 	24
scalar tree_4_3_u04_r10_network.content_distribution 	client-12 	25
scalar tree_4_3_u04_r10_network.content_distribution 	client-13 	26
scalar tree_4_3_u04_r10_network.content_distribution 	client-14 	27
scalar tree_4_3_u04_r10_network.content_distribution 	client-15 	28
scalar tree_4_3_u04_r10_network.content_distribution 	client-16 	29
scalar tree_4_3_u04_r10_network.content_distribution 	client-17 	30
scalar tree_4_3_u04_r10_network.content_distribution 	client-18 	31
scalar tree_4_3_u04_r10_network.content_distribution 	client-19 	32
scalar tree_4_3_u04_r10_network.content_distribution 	client-20 	33
scalar tree_4_3_u04_r10_network.content_distribution 	client-21 	34
scalar tree_4_3_u04_r10_network.content_distribution 	client-22 	35
scalar tree_4_3_u04_r10_network.content_distribution 	client-23 	36
scalar tree_4_3_u04_r10_network.content_distribution 	client-24 	37
scalar tree_4_3_u04_r10_network.content_distribution 	client-25 	38
scalar tree_4_3_u04_r10_network.content_distribution 	client-26 	39
scalar tree_4_3_u04_r10_network.content_distribution 	repo-0_card 	100000
scalar tree_4_3_u04_r10_network.content_distribution 	repo-0_price 	0
scalar tree_4_3_u04_r10_network.statistics 	stabilization_time 	2852.3
scalar tree_4_3_u04_r10_network.statistics 	p_hit 	0.23079550907125
scalar tree_4_3_u04_r10_network.statistics 	interests 	24547.85
scalar tree_4_3_u04_r10_network.statistics 	data 	16480.575
scalar tree_4_3_u04_r10_network.statistics 	hdistance 	2.6221632899367
scalar tree_4_3_u04_r10_network.statistics 	avg_time 	0.004085796682
scalar tree_4_3_u04_r10_network.statistics 	downloads 	322687
scalar tree_4_3_u04_r10_network.statistics 	total_cost 	0
scalar tree_4_3_u04_r10_network.statistics 	total_replicas 	100000
scalar tree_4_3_u04_r10_network.statistics 	inner_hit 	0.42080406090112
scalar tree_4_3_u04_r10_network.node[0].core_layer 	interests[0] 	190359
scalar tree_4_3_u04_r10_network.node[0].core_layer 	repo_load[0] 	186899
scalar tree_4_3_u04_r10_network.node[0].core_layer 	data[0] 	0
scalar tree_4_3_u04_r10_network.node[0].core_layer 	repo_int[0] 	186899
scalar tree_4_3_u04_r10_network.node[0].content_store 	p_hit[0] 	0.018176182896527
scalar tree_4_3_u04_r10_network.node[0].content_store 	hits[0] 	3460
scalar tree_4_3_u04_r10_network.node[0].content_store 	misses[0] 	186899
scalar tree_4_3_u04_r10_network.node[0].content_store 	decision_yes[0] 	199
scalar tree_4_3_u04_r10_network.node[0].content_store 	decision_no[0] 	186700
scalar tree_4_3_u04_r10_network.node[0].content_store 	decision_ratio[0] 	0.0010647461998192
scalar tree_4_3_u04_r10_network.node[1].core_layer 	interests[1] 	69590
scalar tree_4_3_u04_r10_network.node[1].core_layer 	data[1] 	67317
scalar tree_4_3_u04_r10_network.node[1].content_store 	p_hit[1] 	0.032648369018537
scalar tree_4_3_u04_r10_network.node[1].content_store 	hits[1] 	2272
scalar tree_4_3_u04_r10_network.node[1].content_store 	misses[1] 	67318
scalar tree_4_3_u04_r10_network.node[1].content_store 	decision_yes[1] 	106
scalar tree_4_3_u04_r10_network.node[1].content_store 	decision_no[1] 	67211
scalar tree_4_3_u04_r10_network.node[1].content_store 	decision_ratio[1] 	0.001574639392724
scalar tree_4_3_u04_r10_network.node[2].core_layer 	interests[2] 	97836
scalar tree_4_3_u04_r10_network.node[2].core_layer 	data[2] 	95211
scalar tree_4_3_u04_r10_network.node[2].content_store 	p_hit[2] 	0.02678972975183
scalar tree_4_3_u04_r10_network.node[2].content_store 	hits[2] 	2621
scalar tree_4_3_u04_r10_network.node[2].content_store 	misses[2] 	95215
scalar tree_4_3_u04_r10_network.node[2].content_store 	decision_yes[2] 	134
scalar tree_4_3_u04_r10_network.node[2].content_store 	decision_no[2] 	95077
scalar tree_4_3_u04_r10_network.node[2].content_store 	decision_ratio[2] 	0.0014074004054153
scalar tree_4_3_u04_r10_network.node[3].core_layer 	interests[3] 	40157
scalar tree_4_3_u04_r10_network.node[3].core_layer 	data[3] 	38183
scalar tree_4_3_u04_r10_network.node[3].content_store 	p_hit[3] 	0.049132156286575
scalar tree_4_3_u04_r10_network.node[3].content_store 	hits[3] 	1973
scalar tree_4_3_u04_r10_network.node[3].content_store 	misses[3] 	38184
scalar tree_4_3_u04_r10_network.node[3].content_store 	decision_yes[3] 	73
scalar tree_4_3_u04_r10_network.node[3].content_store 	decision_no[3] 	38110
scalar tree_4_3_u04_r10_network.node[3].content_store 	decision_ratio[3] 	0.0019118455857319
scalar tree_4_3_u04_r10_network.node[4].core_layer 	interests[4] 	34833
scalar tree_4_3_u04_r10_network.node[4].core_layer 	data[4] 	32202
scalar tree_4_3_u04_r10_network.node[4].content_store 	p_hit[4] 	0.07547440645365
scalar tree_4_3_u04_r10_network.node[4].content_store 	hits[4] 	2629
scalar tree_4_3_u04_r10_network.node[4].content_store 	misses[4] 	32204
scalar tree_4_3_u04_r10_network.node[4].content_store 	decision_yes[4] 	65
scalar tree_4_3_u04_r10_network.node[4].content_store 	decision_no[4] 	32137
scalar tree_4_3_u04_r10_network.node[4].content_store 	decision_ratio[4] 	0.0020185081671946
scalar tree_4_3_u04_r10_network.node[5].core_layer 	interests[5] 	27597
scalar tree_4_3_u04_r10_network.node[5].core_layer 	data[5] 	25059
scalar tree_4_3_u04_r10_network.node[5].content_store 	p_hit[5] 	0.091894046454325
scalar tree_4_3_u04_r10_network.node[5].content_store 	hits[5] 	2536
scalar tree_4_3_u04_r10_network.node[5].content_store 	misses[5] 	25061
scalar tree_4_3_u04_r10_network.node[5].content_store 	decision_yes[5] 	70
scalar tree_4_3_u04_r10_network.node[5].content_store 	decision_no[5] 	24989
scalar tree_4_3_u04_r10_network.node[5].content_store 	decision_ratio[5] 	0.0027934075581627
scalar tree_4_3_u04_r10_network.node[6].core_layer 	interests[6] 	18894
scalar tree_4_3_u04_r10_network.node[6].core_layer 	data[6] 	16703
scalar tree_4_3_u04_r10_network.node[6].content_store 	p_hit[6] 	0.11596273949402
scalar tree_4_3_u04_r10_network.node[6].content_store 	hits[6] 	2191
scalar tree_4_3_u04_r10_network.node[6].content_store 	misses[6] 	16703
scalar tree_4_3_u04_r10_network.node[6].content_store 	decision_yes[6] 	48
scalar tree_4_3_u04_r10_network.node[6].content_store 	decision_no[6] 	16655
scalar tree_4_3_u04_r10_network.node[6].content_store 	decision_ratio[6] 	0.0028737352571394
scalar tree_4_3_u04_r10_network.node[7].core_layer 	interests[7] 	43220
scalar tree_4_3_u04_r10_network.node[7].core_layer 	data[7] 	40314
scalar tree_4_3_u04_r10_network.node[7].content_store 	p_hit[7] 	0.067237390097177
scalar tree_4_3_u04_r10_network.node[7].content_store 	hits[7] 	2906
scalar tree_4_3_u04_r10_network.node[7].content_store 	misses[7] 	40314
scalar tree_4_3_u04_r10_network.node[7].content_store 	decision_yes[7] 	86
scalar tree_4_3_u04_r10_network.node[7].content_store 	decision_no[7] 	40228
scalar tree_4_3_u04_r10_network.node[7].content_store 	decision_ratio[7] 	0.0021332539564419
scalar tree_4_3_u04_r10_network.node[8].core_layer 	interests[8] 	28196
scalar tree_4_3_u04_r10_network.node[8].core_layer 	data[8] 	25213
scalar tree_4_3_u04_r10_network.node[8].content_store 	p_hit[8] 	0.10579514824798
scalar tree_4_3_u04_r10_network.node[8].content_store 	hits[8] 	2983
scalar tree_4_3_u04_r10_network.node[8].content_store 	misses[8] 	25213
scalar tree_4_3_u04_r10_network.node[8].content_store 	decision_yes[8] 	77
scalar tree_4_3_u04_r10_network.node[8].content_store 	decision_no[8] 	25136
scalar tree_4_3_u04_r10_network.node[8].content_store 	decision_ratio[8] 	0.0030539800896363
scalar tree_4_3_u04_r10_network.node[9].core_layer 	interests[9] 	10627
scalar tree_4_3_u04_r10_network.node[9].core_layer 	data[9] 	8572
scalar tree_4_3_u04_r10_network.node[9].content_store 	p_hit[9] 	0.19337536463724
scalar tree_4_3_u04_r10_network.node[9].content_store 	hits[9] 	2055
scalar tree_4_3_u04_r10_network.node[9].content_store 	misses[9] 	8572
scalar tree_4_3_u04_r10_network.node[9].content_store 	decision_yes[9] 	22
scalar tree_4_3_u04_r10_network.node[9].content_store 	decision_no[9] 	8550
scalar tree_4_3_u04_r10_network.node[9].content_store 	decision_ratio[9] 	0.0025664955669622
scalar tree_4_3_u04_r10_network.node[10].core_layer 	interests[10] 	19526
scalar tree_4_3_u04_r10_network.node[10].core_layer 	data[10] 	17253
scalar tree_4_3_u04_r10_network.node[10].content_store 	p_hit[10] 	0.11635767694356
scalar tree_4_3_u04_r10_network.node[10].content_store 	hits[10] 	2272
scalar tree_4_3_u04_r10_network.node[10].content_store 	misses[10] 	17254
scalar tree_4_3_u04_r10_network.node[10].content_store 	decision_yes[10] 	61
scalar tree_4_3_u04_r10_network.node[10].content_store 	decision_no[10] 	17192
scalar tree_4_3_u04_r10_network.node[10].content_store 	decision_ratio[10] 	0.0035356169941459
scalar tree_4_3_u04_r10_network.node[11].core_layer 	interests[11] 	35754
scalar tree_4_3_u04_r10_network.node[11].core_layer 	data[11] 	32474
scalar tree_4_3_u04_r10_network.node[11].content_store 	p_hit[11] 	0.091737987358058
scalar tree_4_3_u04_r10_network.node[11].content_store 	hits[11] 	3280
scalar tree_4_3_u04_r10_network.node[11].content_store 	misses[11] 	32474
scalar tree_4_3_u04_r10_network.node[11].content_store 	decision_yes[11] 	72
scalar tree_4_3_u04_r10_network.node[11].content_store 	decision_no[11] 	32402
scalar tree_4_3_u04_r10_network.node[11].content_store 	decision_ratio[11] 	0.0022171583420583
scalar tree_4_3_u04_r10_network.node[12].core_layer 	interests[12] 	27434
scalar tree_4_3_u04_r10_network.node[12].core_layer 	data[12] 	24994
scalar tree_4_3_u04_r10_network.node[12].content_store 	p_hit[12] 	0.088867828242327
scalar tree_4_3_u04_r10_network.node[12].content_store 	hits[12] 	2438
scalar tree_4_3_u04_r10_network.node[12].content_store 	misses[12] 	24996
scalar tree_4_3_u04_r10_network.node[12].content_store 	decision_yes[12] 	60
scalar tree_4_3_u04_r10_network.node[12].content_store 	decision_no[12] 	24934
scalar tree_4_3_u04_r10_network.node[12].content_store 	decision_ratio[12] 	0.0024005761382732
scalar tree_4_3_u04_r10_network.node[13].core_layer 	interests[13] 	12368
scalar tree_4_3_u04_r10_network.node[13].core_layer 	data[13] 	8726
scalar tree_4_3_u04_r10_network.node[13].content_store 	p_hit[13] 	0.29438874514877
scalar tree_4_3_u04_r10_network.node[13].content_store 	hits[13] 	3641
scalar tree_4_3_u04_r10_network.node[13].content_store 	misses[13] 	8727
scalar tree_4_3_u04_r10_network.node[13].content_store 	decision_yes[13] 	29
scalar tree_4_3_u04_r10_network.node[13].content_store 	decision_no[13] 	8697
scalar tree_4_3_u04_r10_network.node[13].content_store 	decision_ratio[13] 	0.0033234013293605
scalar tree_4_3_u04_r10_network.node[14].core_layer 	interests[14] 	12738
scalar tree_4_3_u04_r10_network.node[14].core_layer 	data[14] 	8680
scalar tree_4_3_u04_r10_network.node[14].content_store 	p_hit[14] 	0.31857434448108
scalar tree_4_3_u04_r10_network.node[14].content_store 	hits[14] 	4058
scalar tree_4_3_u04_r10_network.node[14].content_store 	misses[14] 	8680
scalar tree_4_3_u04_r10_network.node[14].content_store 	decision_yes[14] 	17
scalar tree_4_3_u04_r10_network.node[14].content_store 	decision_no[14] 	8663
scalar tree_4_3_u04_r10_network.node[14].content_store 	decision_ratio[14] 	0.0019585253456221
scalar tree_4_3_u04_r10_network.node[15].core_layer 	interests[15] 	12515
scalar tree_4_3_u04_r10_network.node[15].core_layer 	data[15] 	8800
scalar tree_4_3_u04_r10_network.node[15].content_store 	p_hit[15] 	0.29684378745505
scalar tree_4_3_u04_r10_network.node[15].content_store 	hits[15] 	3715
scalar tree_4_3_u04_r10_network.node[15].content_store 	misses[15] 	8800
scalar tree_4_3_u04_r10_network.node[15].content_store 	decision_yes[15] 	27
scalar tree_4_3_u04_r10_network.node[15].content_store 	decision_no[15] 	8773
scalar tree_4_3_u04_r10_network.node[15].content_store 	decision_ratio[15] 	0.0030681818181818
scalar tree_4_3_u04_r10_network.node[16].core_layer 	interests[16] 	12316
scalar tree_4_3_u04_r10_network.node[16].core_layer 	data[16] 	8642
scalar tree_4_3_u04_r10_network.node[16].content_store 	p_hit[16] 	0.29831113998051
scalar tree_4_3_u04_r10_network.node[16].content_store 	hits[16] 	3674
scalar tree_4_3_u04_r10_network.node[16].content_store 	misses[16] 	8642
scalar tree_4_3_u04_r10_network.node[16].content_store 	decision_yes[16] 	20
scalar tree_4_3_u04_r10_network.node[16].content_store 	decision_no[16] 	8622
scalar tree_4_3_u04_r10_network.node[16].content_store 	decision_ratio[16] 	0.0023142791020597
scalar tree_4_3_u04_r10_network.node[17].core_layer 	interests[17] 	12426
scalar tree_4_3_u04_r10_network.node[17].core_layer 	data[17] 	8710
scalar tree_4_3_u04_r10_network.node[17].content_store 	p_hit[17] 	0.29905037823918
scalar tree_4_3_u04_r10_network.node[17].content_store 	hits[17] 	3716
scalar tree_4_3_u04_r10_network.node[17].content_store 	misses[17] 	8710
scalar tree_4_3_u04_r10_network.node[17].content_store 	decision_yes[17] 	33
scalar tree_4_3_u04_r10_network.node[17].content_store 	decision_no[17] 	8677
scalar tree_4_3_u04_r10_network.node[17].content_store 	decision_ratio[17] 	0.003788748564868
scalar tree_4_3_u04_r10_network.node[18].core_layer 	interests[18] 	12331
scalar tree_4_3_u04_r10_network.node[18].core_layer 	data[18] 	8706
scalar tree_4_3_u04_r10_network.node[18].content_store 	p_hit[18] 	0.29397453572297
scalar tree_4_3_u04_r10_network.node[18].content_store 	hits[18] 	3625
scalar tree_4_3_u04_r10_network.node[18].content_store 	misses[18] 	8706
scalar tree_4_3_u04_r10_network.node[18].content_store 	decision_yes[18] 	37
scalar tree_4_3_u04_r10_network.node[18].content_store 	decision_no[18] 	8669
scalar tree_4_3_u04_r10_network.node[18].content_store 	decision_ratio[18] 	0.0042499425683437
scalar tree_4_3_u04_r10_network.node[19].core_layer 	interests[19] 	12539
scalar tree_4_3_u04_r10_network.node[19].core_layer 	data[19] 	8662
scalar tree_4_3_u04_r10_network.node[19].content_store 	p_hit[19] 	0.30919531063083
scalar tree_4_3_u04_r10_network.node[19].content_store 	hits[19] 	3877
scalar tree_4_3_u04_r10_network.node[19].content_store 	misses[19] 	8662
scalar tree_4_3_u04_r10_network.node[19].content_store 	decision_yes[19] 	15
scalar tree_4_3_u04_r10_network.node[19].content_store 	decision_no[19] 	8647
scalar tree_4_3_u04_r10_network.node[19].content_store 	decision_ratio[19] 	0.001731701685523
scalar tree_4_3_u04_r10_network.node[20].core_layer 	interests[20] 	12220
scalar tree_4_3_u04_r10_network.node[20].core_layer 	data[20] 	8623
scalar tree_4_3_u04_r10_network.node[20].content_store 	p_hit[20] 	0.2943535188216
scalar tree_4_3_u04_r10_network.node[20].content_store 	hits[20] 	3597
scalar tree_4_3_u04_r10_network.node[20].content_store 	misses[20] 	8623
scalar tree_4_3_u04_r10_network.node[20].content_store 	decision_yes[20] 	24
scalar tree_4_3_u04_r10_network.node[20].content_store 	decision_no[20] 	8599
scalar tree_4_3_u04_r10_network.node[20].content_store 	decision_ratio[20] 	0.0027832540879044
scalar tree_4_3_u04_r10_network.node[21].core_layer 	interests[21] 	12307
scalar tree_4_3_u04_r10_network.node[21].core_layer 	data[21] 	8735
scalar tree_4_3_u04_r10_network.node[21].content_store 	p_hit[21] 	0.29016007150402
scalar tree_4_3_u04_r10_network.node[21].content_store 	hits[21] 	3571
scalar tree_4_3_u04_r10_network.node[21].content_store 	misses[21] 	8736
scalar tree_4_3_u04_r10_network.node[21].content_store 	decision_yes[21] 	23
scalar tree_4_3_u04_r10_network.node[21].content_store 	decision_no[21] 	8712
scalar tree_4_3_u04_r10_network.node[21].content_store 	decision_ratio[21] 	0.002633085289067
scalar tree_4_3_u04_r10_network.node[22].core_layer 	interests[22] 	12549
scalar tree_4_3_u04_r10_network.node[22].core_layer 	data[22] 	8668
scalar tree_4_3_u04_r10_network.node[22].content_store 	p_hit[22] 	0.30926767073074
scalar tree_4_3_u04_r10_network.node[22].content_store 	hits[22] 	3881
scalar tree_4_3_u04_r10_network.node[22].content_store 	misses[22] 	8668
scalar tree_4_3_u04_r10_network.node[22].content_store 	decision_yes[22] 	16
scalar tree_4_3_u04_r10_network.node[22].content_store 	decision_no[22] 	8652
scalar tree_4_3_u04_r10_network.node[22].content_store 	decision_ratio[22] 	0.0018458698661744
scalar tree_4_3_u04_r10_network.node[23].core_layer 	interests[23] 	12919
scalar tree_4_3_u04_r10_network.node[23].core_layer 	data[23] 	8686
scalar tree_4_3_u04_r10_network.node[23].content_store 	p_hit[23] 	0.32757953401966
scalar tree_4_3_u04_r10_network.node[23].content_store 	hits[23] 	4232
scalar tree_4_3_u04_r10_network.node[23].content_store 	misses[23] 	8687
scalar tree_4_3_u04_r10_network.node[23].content_store 	decision_yes[23] 	28
scalar tree_4_3_u04_r10_network.node[23].content_store 	decision_no[23] 	8658
scalar tree_4_3_u04_r10_network.node[23].content_store 	decision_ratio[23] 	0.0032235781717707
scalar tree_4_3_u04_r10_network.node[24].core_layer 	interests[24] 	12372
scalar tree_4_3_u04_r10_network.node[24].core_layer 	data[24] 	8668
scalar tree_4_3_u04_r10_network.node[24].content_store 	p_hit[24] 	0.29938570966699
scalar tree_4_3_u04_r10_network.node[24].content_store 	hits[24] 	3704
scalar tree_4_3_u04_r10_network.node[24].content_store 	misses[24] 	8668
scalar tree_4_3_u04_r10_network.node[24].content_store 	decision_yes[24] 	28
scalar tree_4_3_u04_r10_network.node[24].content_store 	decision_no[24] 	8640
scalar tree_4_3_u04_r10_network.node[24].content_store 	decision_ratio[24] 	0.0032302722658053
scalar tree_4_3_u04_r10_network.node[25].core_layer 	interests[25] 	12937
scalar tree_4_3_u04_r10_network.node[25].core_layer 	data[25] 	8794
scalar tree_4_3_u04_r10_network.node[25].content_store 	p_hit[25] 	0.32024426064775
scalar tree_4_3_u04_r10_network.node[25].content_store 	hits[25] 	4143
scalar tree_4_3_u04_r10_network.node[25].content_store 	misses[25] 	8794
scalar tree_4_3_u04_r10_network.node[25].content_store 	decision_yes[25] 	29
scalar tree_4_3_u04_r10_network.node[25].content_store 	decision_no[25] 	8765
scalar tree_4_3_u04_r10_network.node[25].content_store 	decision_ratio[25] 	0.0032977029793041
scalar tree_4_3_u04_r10_network.node[26].core_layer 	interests[26] 	12383
scalar tree_4_3_u04_r10_network.node[26].core_layer 	data[26] 	8827
scalar tree_4_3_u04_r10_network.node[26].content_store 	p_hit[26] 	0.28724864733909
scalar tree_4_3_u04_r10_network.node[26].content_store 	hits[26] 	3557
scalar tree_4_3_u04_r10_network.node[26].content_store 	misses[26] 	8826
scalar tree_4_3_u04_r10_network.node[26].content_store 	decision_yes[26] 	22
scalar tree_4_3_u04_r10_network.node[26].content_store 	decision_no[26] 	8805
scalar tree_4_3_u04_r10_network.node[26].content_store 	decision_ratio[26] 	0.0024923530078169
scalar tree_4_3_u04_r10_network.node[27].core_layer 	interests[27] 	12390
scalar tree_4_3_u04_r10_network.node[27].core_layer 	data[27] 	8780
scalar tree_4_3_u04_r10_network.node[27].content_store 	p_hit[27] 	0.29136400322841
scalar tree_4_3_u04_r10_network.node[27].content_store 	hits[27] 	3610
scalar tree_4_3_u04_r10_network.node[27].content_store 	misses[27] 	8780
scalar tree_4_3_u04_r10_network.node[27].content_store 	decision_yes[27] 	29
scalar tree_4_3_u04_r10_network.node[27].content_store 	decision_no[27] 	8751
scalar tree_4_3_u04_r10_network.node[27].content_store 	decision_ratio[27] 	0.0033029612756264
scalar tree_4_3_u04_r10_network.node[28].core_layer 	interests[28] 	12768
scalar tree_4_3_u04_r10_network.node[28].core_layer 	data[28] 	8916
scalar tree_4_3_u04_r10_network.node[28].content_store 	p_hit[28] 	0.30169172932331
scalar tree_4_3_u04_r10_network.node[28].content_store 	hits[28] 	3852
scalar tree_4_3_u04_r10_network.node[28].content_store 	misses[28] 	8916
scalar tree_4_3_u04_r10_network.node[28].content_store 	decision_yes[28] 	24
scalar tree_4_3_u04_r10_network.node[28].content_store 	decision_no[28] 	8892
scalar tree_4_3_u04_r10_network.node[28].content_store 	decision_ratio[28] 	0.0026917900403769
scalar tree_4_3_u04_r10_network.node[29].core_layer 	interests[29] 	12693
scalar tree_4_3_u04_r10_network.node[29].core_layer 	data[29] 	8759
scalar tree_4_3_u04_r10_network.node[29].content_store 	p_hit[29] 	0.30993460962735
scalar tree_4_3_u04_r10_network.node[29].content_store 	hits[29] 	3934
scalar tree_4_3_u04_r10_network.node[29].content_store 	misses[29] 	8759
scalar tree_4_3_u04_r10_network.node[29].content_store 	decision_yes[29] 	36
scalar tree_4_3_u04_r10_network.node[29].content_store 	decision_no[29] 	8723
scalar tree_4_3_u04_r10_network.node[29].content_store 	decision_ratio[29] 	0.0041100582258249
scalar tree_4_3_u04_r10_network.node[30].core_layer 	interests[30] 	12124
scalar tree_4_3_u04_r10_network.node[30].core_layer 	data[30] 	8621
scalar tree_4_3_u04_r10_network.node[30].content_store 	p_hit[30] 	0.28893104585945
scalar tree_4_3_u04_r10_network.node[30].content_store 	hits[30] 	3503
scalar tree_4_3_u04_r10_network.node[30].content_store 	misses[30] 	8621
scalar tree_4_3_u04_r10_network.node[30].content_store 	decision_yes[30] 	24
scalar tree_4_3_u04_r10_network.node[30].content_store 	decision_no[30] 	8597
scalar tree_4_3_u04_r10_network.node[30].content_store 	decision_ratio[30] 	0.0027838997796079
scalar tree_4_3_u04_r10_network.node[31].core_layer 	interests[31] 	12191
scalar tree_4_3_u04_r10_network.node[31].core_layer 	data[31] 	8620
scalar tree_4_3_u04_r10_network.node[31].content_store 	p_hit[31] 	0.29300303502584
scalar tree_4_3_u04_r10_network.node[31].content_store 	hits[31] 	3572
scalar tree_4_3_u04_r10_network.node[31].content_store 	misses[31] 	8619
scalar tree_4_3_u04_r10_network.node[31].content_store 	decision_yes[31] 	24
scalar tree_4_3_u04_r10_network.node[31].content_store 	decision_no[31] 	8596
scalar tree_4_3_u04_r10_network.node[31].content_store 	decision_ratio[31] 	0.002784222737819
scalar tree_4_3_u04_r10_network.node[32].core_layer 	interests[32] 	13080
scalar tree_4_3_u04_r10_network.node[32].core_layer 	data[32] 	8968
scalar tree_4_3_u04_r10_network.node[32].content_store 	p_hit[32] 	0.31437308868502
scalar tree_4_3_u04_r10_network.node[32].content_store 	hits[32] 	4112
scalar tree_4_3_u04_r10_network.node[32].content_store 	misses[32] 	8968
scalar tree_4_3_u04_r10_network.node[32].content_store 	decision_yes[32] 	28
scalar tree_4_3_u04_r10_network.node[32].content_store 	decision_no[32] 	8940
scalar tree_4_3_u04_r10_network.node[32].content_store 	decision_ratio[32] 	0.0031222123104371
scalar tree_4_3_u04_r10_network.node[33].core_layer 	interests[33] 	12734
scalar tree_4_3_u04_r10_network.node[33].core_layer 	data[33] 	8739
scalar tree_4_3_u04_r10_network.node[33].content_store 	p_hit[33] 	0.31372702999843
scalar tree_4_3_u04_r10_network.node[33].content_store 	hits[33] 	3995
scalar tree_4_3_u04_r10_network.node[33].content_store 	misses[33] 	8739
scalar tree_4_3_u04_r10_network.node[33].content_store 	decision_yes[33] 	30
scalar tree_4_3_u04_r10_network.node[33].content_store 	decision_no[33] 	8709
scalar tree_4_3_u04_r10_network.node[33].content_store 	decision_ratio[33] 	0.0034328870580158
scalar tree_4_3_u04_r10_network.node[34].core_layer 	interests[34] 	12794
scalar tree_4_3_u04_r10_network.node[34].core_layer 	data[34] 	8739
scalar tree_4_3_u04_r10_network.node[34].content_store 	p_hit[34] 	0.31694544317649
scalar tree_4_3_u04_r10_network.node[34].content_store 	hits[34] 	4055
scalar tree_4_3_u04_r10_network.node[34].content_store 	misses[34] 	8739
scalar tree_4_3_u04_r10_network.node[34].content_store 	decision_yes[34] 	21
scalar tree_4_3_u04_r10_network.node[34].content_store 	decision_no[34] 	8718
scalar tree_4_3_u04_r10_network.node[34].content_store 	decision_ratio[34] 	0.0024030209406111
scalar tree_4_3_u04_r10_network.node[35].core_layer 	interests[35] 	12662
scalar tree_4_3_u04_r10_network.node[35].core_layer 	data[35] 	8800
scalar tree_4_3_u04_r10_network.node[35].content_store 	p_hit[35] 	0.30500710788185
scalar tree_4_3_u04_r10_network.node[35].content_store 	hits[35] 	3862
scalar tree_4_3_u04_r10_network.node[35].content_store 	misses[35] 	8800
scalar tree_4_3_u04_r10_network.node[35].content_store 	decision_yes[35] 	25
scalar tree_4_3_u04_r10_network.node[35].content_store 	decision_no[35] 	8775
scalar tree_4_3_u04_r10_network.node[35].content_store 	decision_ratio[35] 	0.0028409090909091
scalar tree_4_3_u04_r10_network.node[36].core_layer 	interests[36] 	12533
scalar tree_4_3_u04_r10_network.node[36].core_layer 	data[36] 	8680
scalar tree_4_3_u04_r10_network.node[36].content_store 	p_hit[36] 	0.3074283890529
scalar tree_4_3_u04_r10_network.node[36].content_store 	hits[36] 	3853
scalar tree_4_3_u04_r10_network.node[36].content_store 	misses[36] 	8680
scalar tree_4_3_u04_r10_network.node[36].content_store 	decision_yes[36] 	24
scalar tree_4_3_u04_r10_network.node[36].content_store 	decision_no[36] 	8656
scalar tree_4_3_u04_r10_network.node[36].content_store 	decision_ratio[36] 	0.0027649769585253
scalar tree_4_3_u04_r10_network.node[37].core_layer 	interests[37] 	12310
scalar tree_4_3_u04_r10_network.node[37].core_layer 	data[37] 	8693
scalar tree_4_3_u04_r10_network.node[37].content_store 	p_hit[37] 	0.29374492282697
scalar tree_4_3_u04_r10_network.node[37].content_store 	hits[37] 	3616
scalar tree_4_3_u04_r10_network.node[37].content_store 	misses[37] 	8694
scalar tree_4_3_u04_r10_network.node[37].content_store 	decision_yes[37] 	25
scalar tree_4_3_u04_r10_network.node[37].content_store 	decision_no[37] 	8668
scalar tree_4_3_u04_r10_network.node[37].content_store 	decision_ratio[37] 	0.0028758771425285
scalar tree_4_3_u04_r10_network.node[38].core_layer 	interests[38] 	12419
scalar tree_4_3_u04_r10_network.node[38].core_layer 	data[38] 	8851
scalar tree_4_3_u04_r10_network.node[38].content_store 	p_hit[38] 	0.28730171511394
scalar tree_4_3_u04_r10_network.node[38].content_store 	hits[38] 	3568
scalar tree_4_3_u04_r10_network.node[38].content_store 	misses[38] 	8851
scalar tree_4_3_u04_r10_network.node[38].content_store 	decision_yes[38] 	24
scalar tree_4_3_u04_r10_network.node[38].content_store 	decision_no[38] 	8827
scalar tree_4_3_u04_r10_network.node[38].content_store 	decision_ratio[38] 	0.0027115580160434
scalar tree_4_3_u04_r10_network.node[39].core_layer 	interests[39] 	12273
scalar tree_4_3_u04_r10_network.node[39].core_layer 	data[39] 	8635
scalar tree_4_3_u04_r10_network.node[39].content_store 	p_hit[39] 	0.29634156278009
scalar tree_4_3_u04_r10_network.node[39].content_store 	hits[39] 	3637
scalar tree_4_3_u04_r10_network.node[39].content_store 	misses[39] 	8636
scalar tree_4_3_u04_r10_network.node[39].content_store 	decision_yes[39] 	25
scalar tree_4_3_u04_r10_network.node[39].content_store 	decision_no[39] 	8610
scalar tree_4_3_u04_r10_network.node[39].content_store 	decision_ratio[39] 	0.0028951939779965
scalar tree_4_3_u04_r10_network.client[13] 	hdistance[13] 	2.6395747886499
scalar tree_4_3_u04_r10_network.client[13] 	downloads[13] 	11947
scalar tree_4_3_u04_r10_network.client[13] 	avg_time[13] 	0.004105496559
scalar tree_4_3_u04_r10_network.client[14] 	hdistance[14] 	2.6011321392362
scalar tree_4_3_u04_r10_network.client[14] 	downloads[14] 	11836
scalar tree_4_3_u04_r10_network.client[14] 	avg_time[14] 	0.004021131309
scalar tree_4_3_u04_r10_network.client[15] 	hdistance[15] 	2.6404345302264
scalar tree_4_3_u04_r10_network.client[15] 	downloads[15] 	12059
scalar tree_4_3_u04_r10_network.client[15] 	avg_time[15] 	0.004106773082
scalar tree_4_3_u04_r10_network.client[16] 	hdistance[16] 	2.635060362173
scalar tree_4_3_u04_r10_network.client[16] 	downloads[16] 	11928
scalar tree_4_3_u04_r10_network.client[16] 	avg_time[16] 	0.004098253235
scalar tree_4_3_u04_r10_network.client[17] 	hdistance[17] 	2.6352578522036
scalar tree_4_3_u04_r10_network.client[17] 	downloads[17] 	12003
scalar tree_4_3_u04_r10_network.client[17] 	avg_time[17] 	0.004100997312
scalar tree_4_3_u04_r10_network.client[18] 	hdistance[18] 	2.6471622300352
scalar tree_4_3_u04_r10_network.client[18] 	downloads[18] 	11946
scalar tree_4_3_u04_r10_network.client[18] 	avg_time[18] 	0.004113011961
scalar tree_4_3_u04_r10_network.client[19] 	hdistance[19] 	2.5983918747355
scalar tree_4_3_u04_r10_network.client[19] 	downloads[19] 	11815
scalar tree_4_3_u04_r10_network.client[19] 	avg_time[19] 	0.00402386499
scalar tree_4_3_u04_r10_network.client[20] 	hdistance[20] 	2.646216079555
scalar tree_4_3_u04_r10_network.client[20] 	downloads[20] 	11866
scalar tree_4_3_u04_r10_network.client[20] 	avg_time[20] 	0.004112250527
scalar tree_4_3_u04_r10_network.client[21] 	hdistance[21] 	2.6473631508678
scalar tree_4_3_u04_r10_network.client[21] 	downloads[21] 	11984
scalar tree_4_3_u04_r10_network.client[21] 	avg_time[21] 	0.004120582083
scalar tree_4_3_u04_r10_network.client[22] 	hdistance[22] 	2.6154294759643
scalar tree_4_3_u04_r10_network.client[22] 	downloads[22] 	12003
scalar tree_4_3_u04_r10_network.client[22] 	avg_time[22] 	0.004087808392
scalar tree_4_3_u04_r10_network.client[23] 	hdistance[23] 	2.5623789065791
scalar tree_4_3_u04_r10_network.client[23] 	downloads[23] 	11871
scalar tree_4_3_u04_r10_network.client[23] 	avg_time[23] 	0.00398971985
scalar tree_4_3_u04_r10_network.client[24] 	hdistance[24] 	2.638683965064
scalar tree_4_3_u04_r10_network.client[24] 	downloads[24] 	11793
scalar tree_4_3_u04_r10_network.client[24] 	avg_time[24] 	0.004127191161
scalar tree_4_3_u04_r10_network.client[25] 	hdistance[25] 	2.577376473539
scalar tree_4_3_u04_r10_network.client[25] 	downloads[25] 	11961
scalar tree_4_3_u04_r10_network.client[25] 	avg_time[25] 	0.00401521315
scalar tree_4_3_u04_r10_network.client[26] 	hdistance[26] 	2.6587823769468
scalar tree_4_3_u04_r10_network.client[26] 	downloads[26] 	12007
scalar tree_4_3_u04_r10_network.client[26] 	avg_time[26] 	0.004157519902
scalar tree_4_3_u04_r10_network.client[27] 	hdistance[27] 	2.6464375523889
scalar tree_4_3_u04_r10_network.client[27] 	downloads[27] 	11930
scalar tree_4_3_u04_r10_network.client[27] 	avg_time[27] 	0.004149949815
scalar tree_4_3_u04_r10_network.client[28] 	hdistance[28] 	2.6053176509567
scalar tree_4_3_u04_r10_network.client[28] 	downloads[28] 	12073
scalar tree_4_3_u04_r10_network.client[28] 	avg_time[28] 	0.004058971559
scalar tree_4_3_u04_r10_network.client[29] 	hdistance[29] 	2.5851028256144
scalar tree_4_3_u04_r10_network.client[29] 	downloads[29] 	11962
scalar tree_4_3_u04_r10_network.client[29] 	avg_time[29] 	0.004031931463
scalar tree_4_3_u04_r10_network.client[30] 	hdistance[30] 	2.6474536454401
scalar tree_4_3_u04_r10_network.client[30] 	downloads[30] 	11919
scalar tree_4_3_u04_r10_network.client[30] 	avg_time[30] 	0.004150436171
scalar tree_4_3_u04_r10_network.client[31] 	hdistance[31] 	2.6475444360205
scalar tree_4_3_u04_r10_network.client[31] 	downloads[31] 	11871
scalar tree_4_3_u04_r10_network.client[31] 	avg_time[31] 	0.004118766866
scalar tree_4_3_u04_r10_network.client[32] 	hdistance[32] 	2.5998012257744
scalar tree_4_3_u04_r10_network.client[32] 	downloads[32] 	12074
scalar tree_4_3_u04_r10_network.client[32] 	avg_time[32] 	0.004070561101
scalar tree_4_3_u04_r10_network.client[33] 	hdistance[33] 	2.6034193764667
scalar tree_4_3_u04_r10_network.client[33] 	downloads[33] 	11932
scalar tree_4_3_u04_r10_network.client[33] 	avg_time[33] 	0.004025977563
scalar tree_4_3_u04_r10_network.client[34] 	hdistance[34] 	2.5564495851144
scalar tree_4_3_u04_r10_network.client[34] 	downloads[34] 	11931
scalar tree_4_3_u04_r10_network.client[34] 	avg_time[34] 	0.0039959739
scalar tree_4_3_u04_r10_network.client[35] 	hdistance[35] 	2.6136420008268
scalar tree_4_3_u04_r10_network.client[35] 	downloads[35] 	12095
scalar tree_4_3_u04_r10_network.client[35] 	avg_time[35] 	0.004104337604
scalar tree_4_3_u04_r10_network.client[36] 	hdistance[36] 	2.6086557705137
scalar tree_4_3_u04_r10_network.client[36] 	downloads[36] 	11992
scalar tree_4_3_u04_r10_network.client[36] 	avg_time[36] 	0.004093726146
scalar tree_4_3_u04_r10_network.client[37] 	hdistance[37] 	2.6505295007564
scalar tree_4_3_u04_r10_network.client[37] 	downloads[37] 	11898
scalar tree_4_3_u04_r10_network.client[37] 	avg_time[37] 	0.004118193642
scalar tree_4_3_u04_r10_network.client[38] 	hdistance[38] 	2.6547992730877
scalar tree_4_3_u04_r10_network.client[38] 	downloads[38] 	12106
scalar tree_4_3_u04_r10_network.client[38] 	avg_time[38] 	0.004124740708
scalar tree_4_3_u04_r10_network.client[39] 	hdistance[39] 	2.6360117795541
scalar tree_4_3_u04_r10_network.client[39] 	downloads[39] 	11885
scalar tree_4_3_u04_r10_network.client[39] 	avg_time[39] 	0.004093130386
