version 2
run General-241-20160901-02:05:09-8710
attr a 0.9
attr cd ffc0.25
attr configname General
attr cr lru
attr datetime 20160901-02:05:09
attr experiment General
attr fsize 1
attr inifile hw5115/scenario_Y/omnetp.ini
attr iterationvars "$name=tree_4_3, $un=04, $rep=1, $cd=ffc0.25, $cr=lru, $fsize=1, $a=0.9, $sl=nrr, $ttl=1000, $variance=0.05"
attr iterationvars2 "$name=tree_4_3, $un=04, $rep=1, $cd=ffc0.25, $cr=lru, $fsize=1, $a=0.9, $sl=nrr, $ttl=1000, $variance=0.05, $repetition=0"
attr measurement "$name=tree_4_3, $un=04, $rep=1, $cd=ffc0.25, $cr=lru, $fsize=1, $a=0.9, $sl=nrr, $ttl=1000, $variance=0.05"
attr name tree_4_3
attr network networks.${name}_u${un}_r${rep}_network
attr processid 8710
attr rep 1
attr repetition 0
attr replication #0
attr resultdir results
attr runnumber 241
attr seedset 1
attr sl nrr
attr ttl 1000
attr un 04
attr variance 0.05

scalar . 	a 	0.9
scalar . 	fsize 	1
scalar . 	rep 	1
scalar . 	ttl 	1000
scalar . 	un 	04
scalar . 	variance 	0.05
scalar tree_4_3_u04_r1_network.content_distribution 	repo-0 	0
scalar tree_4_3_u04_r1_network.content_distribution 	client-0 	13
scalar tree_4_3_u04_r1_network.content_distribution 	client-1 	14
scalar tree_4_3_u04_r1_network.content_distribution 	client-2 	15
scalar tree_4_3_u04_r1_network.content_distribution 	client-3 	16
scalar tree_4_3_u04_r1_network.content_distribution 	client-4 	17
scalar tree_4_3_u04_r1_network.content_distribution 	client-5 	18
scalar tree_4_3_u04_r1_network.content_distribution 	client-6 	19
scalar tree_4_3_u04_r1_network.content_distribution 	client-7 	20
scalar tree_4_3_u04_r1_network.content_distribution 	client-8 	21
scalar tree_4_3_u04_r1_network.content_distribution 	client-9 	22
scalar tree_4_3_u04_r1_network.content_distribution 	client-10 	23
scalar tree_4_3_u04_r1_network.content_distribution 	client-11 	24
scalar tree_4_3_u04_r1_network.content_distribution 	client-12 	25
scalar tree_4_3_u04_r1_network.content_distribution 	client-13 	26
scalar tree_4_3_u04_r1_network.content_distribution 	client-14 	27
scalar tree_4_3_u04_r1_network.content_distribution 	client-15 	28
scalar tree_4_3_u04_r1_network.content_distribution 	client-16 	29
scalar tree_4_3_u04_r1_network.content_distribution 	client-17 	30
scalar tree_4_3_u04_r1_network.content_distribution 	client-18 	31
scalar tree_4_3_u04_r1_network.content_distribution 	client-19 	32
scalar tree_4_3_u04_r1_network.content_distribution 	client-20 	33
scalar tree_4_3_u04_r1_network.content_distribution 	client-21 	34
scalar tree_4_3_u04_r1_network.content_distribution 	client-22 	35
scalar tree_4_3_u04_r1_network.content_distribution 	client-23 	36
scalar tree_4_3_u04_r1_network.content_distribution 	client-24 	37
scalar tree_4_3_u04_r1_network.content_distribution 	client-25 	38
scalar tree_4_3_u04_r1_network.content_distribution 	client-26 	39
scalar tree_4_3_u04_r1_network.content_distribution 	repo-0_card 	100000
scalar tree_4_3_u04_r1_network.content_distribution 	repo-0_price 	0
scalar tree_4_3_u04_r1_network.statistics 	stabilization_time 	1898.9
scalar tree_4_3_u04_r1_network.statistics 	p_hit 	0.22976280092404
scalar tree_4_3_u04_r1_network.statistics 	interests 	24685.75
scalar tree_4_3_u04_r1_network.statistics 	data 	16579.725
scalar tree_4_3_u04_r1_network.statistics 	hdistance 	2.6261220011995
scalar tree_4_3_u04_r1_network.statistics 	avg_time 	0.004090819068
scalar tree_4_3_u04_r1_network.statistics 	downloads 	324232
scalar tree_4_3_u04_r1_network.statistics 	total_cost 	0
scalar tree_4_3_u04_r1_network.statistics 	total_replicas 	100000
scalar tree_4_3_u04_r1_network.statistics 	inner_hit 	0.41931703224851
scalar tree_4_3_u04_r1_network.node[0].core_layer 	interests[0] 	191728
scalar tree_4_3_u04_r1_network.node[0].core_layer 	repo_load[0] 	188276
scalar tree_4_3_u04_r1_network.node[0].core_layer 	data[0] 	0
scalar tree_4_3_u04_r1_network.node[0].core_layer 	repo_int[0] 	188276
scalar tree_4_3_u04_r1_network.node[0].content_store 	p_hit[0] 	0.018004673287157
scalar tree_4_3_u04_r1_network.node[0].content_store 	hits[0] 	3452
scalar tree_4_3_u04_r1_network.node[0].content_store 	misses[0] 	188276
scalar tree_4_3_u04_r1_network.node[0].content_store 	decision_yes[0] 	218
scalar tree_4_3_u04_r1_network.node[0].content_store 	decision_no[0] 	188058
scalar tree_4_3_u04_r1_network.node[0].content_store 	decision_ratio[0] 	0.0011578746096157
scalar tree_4_3_u04_r1_network.node[1].core_layer 	interests[1] 	67954
scalar tree_4_3_u04_r1_network.node[1].core_layer 	data[1] 	66124
scalar tree_4_3_u04_r1_network.node[1].content_store 	p_hit[1] 	0.026915266209495
scalar tree_4_3_u04_r1_network.node[1].content_store 	hits[1] 	1829
scalar tree_4_3_u04_r1_network.node[1].content_store 	misses[1] 	66125
scalar tree_4_3_u04_r1_network.node[1].content_store 	decision_yes[1] 	91
scalar tree_4_3_u04_r1_network.node[1].content_store 	decision_no[1] 	66033
scalar tree_4_3_u04_r1_network.node[1].content_store 	decision_ratio[1] 	0.001376202286613
scalar tree_4_3_u04_r1_network.node[2].core_layer 	interests[2] 	69243
scalar tree_4_3_u04_r1_network.node[2].core_layer 	data[2] 	67159
scalar tree_4_3_u04_r1_network.node[2].content_store 	p_hit[2] 	0.030068021316234
scalar tree_4_3_u04_r1_network.node[2].content_store 	hits[2] 	2082
scalar tree_4_3_u04_r1_network.node[2].content_store 	misses[2] 	67161
scalar tree_4_3_u04_r1_network.node[2].content_store 	decision_yes[2] 	101
scalar tree_4_3_u04_r1_network.node[2].content_store 	decision_no[2] 	67058
scalar tree_4_3_u04_r1_network.node[2].content_store 	decision_ratio[2] 	0.0015038937446954
scalar tree_4_3_u04_r1_network.node[3].core_layer 	interests[3] 	72172
scalar tree_4_3_u04_r1_network.node[3].core_layer 	data[3] 	69000
scalar tree_4_3_u04_r1_network.node[3].content_store 	p_hit[3] 	0.043922850967134
scalar tree_4_3_u04_r1_network.node[3].content_store 	hits[3] 	3170
scalar tree_4_3_u04_r1_network.node[3].content_store 	misses[3] 	69002
scalar tree_4_3_u04_r1_network.node[3].content_store 	decision_yes[3] 	115
scalar tree_4_3_u04_r1_network.node[3].content_store 	decision_no[3] 	68885
scalar tree_4_3_u04_r1_network.node[3].content_store 	decision_ratio[3] 	0.0016666666666667
scalar tree_4_3_u04_r1_network.node[4].core_layer 	interests[4] 	35085
scalar tree_4_3_u04_r1_network.node[4].core_layer 	data[4] 	32842
scalar tree_4_3_u04_r1_network.node[4].content_store 	p_hit[4] 	0.063901952401311
scalar tree_4_3_u04_r1_network.node[4].content_store 	hits[4] 	2242
scalar tree_4_3_u04_r1_network.node[4].content_store 	misses[4] 	32843
scalar tree_4_3_u04_r1_network.node[4].content_store 	decision_yes[4] 	83
scalar tree_4_3_u04_r1_network.node[4].content_store 	decision_no[4] 	32759
scalar tree_4_3_u04_r1_network.node[4].content_store 	decision_ratio[4] 	0.0025272516899093
scalar tree_4_3_u04_r1_network.node[5].core_layer 	interests[5] 	25936
scalar tree_4_3_u04_r1_network.node[5].core_layer 	data[5] 	23718
scalar tree_4_3_u04_r1_network.node[5].content_store 	p_hit[5] 	0.085518198642813
scalar tree_4_3_u04_r1_network.node[5].content_store 	hits[5] 	2218
scalar tree_4_3_u04_r1_network.node[5].content_store 	misses[5] 	23718
scalar tree_4_3_u04_r1_network.node[5].content_store 	decision_yes[5] 	49
scalar tree_4_3_u04_r1_network.node[5].content_store 	decision_no[5] 	23669
scalar tree_4_3_u04_r1_network.node[5].content_store 	decision_ratio[5] 	0.0020659414790455
scalar tree_4_3_u04_r1_network.node[6].core_layer 	interests[6] 	21975
scalar tree_4_3_u04_r1_network.node[6].core_layer 	data[6] 	18426
scalar tree_4_3_u04_r1_network.node[6].content_store 	p_hit[6] 	0.16145620022753
scalar tree_4_3_u04_r1_network.node[6].content_store 	hits[6] 	3548
scalar tree_4_3_u04_r1_network.node[6].content_store 	misses[6] 	18427
scalar tree_4_3_u04_r1_network.node[6].content_store 	decision_yes[6] 	63
scalar tree_4_3_u04_r1_network.node[6].content_store 	decision_no[6] 	18363
scalar tree_4_3_u04_r1_network.node[6].content_store 	decision_ratio[6] 	0.0034190817323347
scalar tree_4_3_u04_r1_network.node[7].core_layer 	interests[7] 	42884
scalar tree_4_3_u04_r1_network.node[7].core_layer 	data[7] 	40158
scalar tree_4_3_u04_r1_network.node[7].content_store 	p_hit[7] 	0.063543512732021
scalar tree_4_3_u04_r1_network.node[7].content_store 	hits[7] 	2725
scalar tree_4_3_u04_r1_network.node[7].content_store 	misses[7] 	40159
scalar tree_4_3_u04_r1_network.node[7].content_store 	decision_yes[7] 	89
scalar tree_4_3_u04_r1_network.node[7].content_store 	decision_no[7] 	40069
scalar tree_4_3_u04_r1_network.node[7].content_store 	decision_ratio[7] 	0.0022162458289755
scalar tree_4_3_u04_r1_network.node[8].core_layer 	interests[8] 	18842
scalar tree_4_3_u04_r1_network.node[8].core_layer 	data[8] 	16815
scalar tree_4_3_u04_r1_network.node[8].content_store 	p_hit[8] 	0.10757881328946
scalar tree_4_3_u04_r1_network.node[8].content_store 	hits[8] 	2027
scalar tree_4_3_u04_r1_network.node[8].content_store 	misses[8] 	16815
scalar tree_4_3_u04_r1_network.node[8].content_store 	decision_yes[8] 	43
scalar tree_4_3_u04_r1_network.node[8].content_store 	decision_no[8] 	16772
scalar tree_4_3_u04_r1_network.node[8].content_store 	decision_ratio[8] 	0.0025572405590247
scalar tree_4_3_u04_r1_network.node[9].core_layer 	interests[9] 	19582
scalar tree_4_3_u04_r1_network.node[9].core_layer 	data[9] 	17036
scalar tree_4_3_u04_r1_network.node[9].content_store 	p_hit[9] 	0.13001736288428
scalar tree_4_3_u04_r1_network.node[9].content_store 	hits[9] 	2546
scalar tree_4_3_u04_r1_network.node[9].content_store 	misses[9] 	17036
scalar tree_4_3_u04_r1_network.node[9].content_store 	decision_yes[9] 	54
scalar tree_4_3_u04_r1_network.node[9].content_store 	decision_no[9] 	16982
scalar tree_4_3_u04_r1_network.node[9].content_store 	decision_ratio[9] 	0.0031697581591923
scalar tree_4_3_u04_r1_network.node[10].core_layer 	interests[10] 	44473
scalar tree_4_3_u04_r1_network.node[10].core_layer 	data[10] 	41526
scalar tree_4_3_u04_r1_network.node[10].content_store 	p_hit[10] 	0.066174982573696
scalar tree_4_3_u04_r1_network.node[10].content_store 	hits[10] 	2943
scalar tree_4_3_u04_r1_network.node[10].content_store 	misses[10] 	41530
scalar tree_4_3_u04_r1_network.node[10].content_store 	decision_yes[10] 	106
scalar tree_4_3_u04_r1_network.node[10].content_store 	decision_no[10] 	41420
scalar tree_4_3_u04_r1_network.node[10].content_store 	decision_ratio[10] 	0.002552617637143
scalar tree_4_3_u04_r1_network.node[11].core_layer 	interests[11] 	18612
scalar tree_4_3_u04_r1_network.node[11].core_layer 	data[11] 	16437
scalar tree_4_3_u04_r1_network.node[11].content_store 	p_hit[11] 	0.11686009026435
scalar tree_4_3_u04_r1_network.node[11].content_store 	hits[11] 	2175
scalar tree_4_3_u04_r1_network.node[11].content_store 	misses[11] 	16437
scalar tree_4_3_u04_r1_network.node[11].content_store 	decision_yes[11] 	44
scalar tree_4_3_u04_r1_network.node[11].content_store 	decision_no[11] 	16393
scalar tree_4_3_u04_r1_network.node[11].content_store 	decision_ratio[11] 	0.0026768875098862
scalar tree_4_3_u04_r1_network.node[12].core_layer 	interests[12] 	19941
scalar tree_4_3_u04_r1_network.node[12].core_layer 	data[12] 	17176
scalar tree_4_3_u04_r1_network.node[12].content_store 	p_hit[12] 	0.13865904418033
scalar tree_4_3_u04_r1_network.node[12].content_store 	hits[12] 	2765
scalar tree_4_3_u04_r1_network.node[12].content_store 	misses[12] 	17176
scalar tree_4_3_u04_r1_network.node[12].content_store 	decision_yes[12] 	58
scalar tree_4_3_u04_r1_network.node[12].content_store 	decision_no[12] 	17118
scalar tree_4_3_u04_r1_network.node[12].content_store 	decision_ratio[12] 	0.0033768048439683
scalar tree_4_3_u04_r1_network.node[13].core_layer 	interests[13] 	12495
scalar tree_4_3_u04_r1_network.node[13].core_layer 	data[13] 	8744
scalar tree_4_3_u04_r1_network.node[13].content_store 	p_hit[13] 	0.30020008003201
scalar tree_4_3_u04_r1_network.node[13].content_store 	hits[13] 	3751
scalar tree_4_3_u04_r1_network.node[13].content_store 	misses[13] 	8744
scalar tree_4_3_u04_r1_network.node[13].content_store 	decision_yes[13] 	32
scalar tree_4_3_u04_r1_network.node[13].content_store 	decision_no[13] 	8712
scalar tree_4_3_u04_r1_network.node[13].content_store 	decision_ratio[13] 	0.0036596523330284
scalar tree_4_3_u04_r1_network.node[14].core_layer 	interests[14] 	12430
scalar tree_4_3_u04_r1_network.node[14].core_layer 	data[14] 	8795
scalar tree_4_3_u04_r1_network.node[14].content_store 	p_hit[14] 	0.2923572003218
scalar tree_4_3_u04_r1_network.node[14].content_store 	hits[14] 	3634
scalar tree_4_3_u04_r1_network.node[14].content_store 	misses[14] 	8796
scalar tree_4_3_u04_r1_network.node[14].content_store 	decision_yes[14] 	25
scalar tree_4_3_u04_r1_network.node[14].content_store 	decision_no[14] 	8770
scalar tree_4_3_u04_r1_network.node[14].content_store 	decision_ratio[14] 	0.0028425241614554
scalar tree_4_3_u04_r1_network.node[15].core_layer 	interests[15] 	12432
scalar tree_4_3_u04_r1_network.node[15].core_layer 	data[15] 	8767
scalar tree_4_3_u04_r1_network.node[15].content_store 	p_hit[15] 	0.29480373230373
scalar tree_4_3_u04_r1_network.node[15].content_store 	hits[15] 	3665
scalar tree_4_3_u04_r1_network.node[15].content_store 	misses[15] 	8767
scalar tree_4_3_u04_r1_network.node[15].content_store 	decision_yes[15] 	26
scalar tree_4_3_u04_r1_network.node[15].content_store 	decision_no[15] 	8741
scalar tree_4_3_u04_r1_network.node[15].content_store 	decision_ratio[15] 	0.002965666704688
scalar tree_4_3_u04_r1_network.node[16].core_layer 	interests[16] 	12816
scalar tree_4_3_u04_r1_network.node[16].core_layer 	data[16] 	8749
scalar tree_4_3_u04_r1_network.node[16].content_store 	p_hit[16] 	0.31733770287141
scalar tree_4_3_u04_r1_network.node[16].content_store 	hits[16] 	4067
scalar tree_4_3_u04_r1_network.node[16].content_store 	misses[16] 	8749
scalar tree_4_3_u04_r1_network.node[16].content_store 	decision_yes[16] 	22
scalar tree_4_3_u04_r1_network.node[16].content_store 	decision_no[16] 	8727
scalar tree_4_3_u04_r1_network.node[16].content_store 	decision_ratio[16] 	0.0025145730940679
scalar tree_4_3_u04_r1_network.node[17].core_layer 	interests[17] 	12465
scalar tree_4_3_u04_r1_network.node[17].core_layer 	data[17] 	8918
scalar tree_4_3_u04_r1_network.node[17].content_store 	p_hit[17] 	0.28455675892499
scalar tree_4_3_u04_r1_network.node[17].content_store 	hits[17] 	3547
scalar tree_4_3_u04_r1_network.node[17].content_store 	misses[17] 	8918
scalar tree_4_3_u04_r1_network.node[17].content_store 	decision_yes[17] 	24
scalar tree_4_3_u04_r1_network.node[17].content_store 	decision_no[17] 	8894
scalar tree_4_3_u04_r1_network.node[17].content_store 	decision_ratio[17] 	0.0026911863646558
scalar tree_4_3_u04_r1_network.node[18].core_layer 	interests[18] 	12737
scalar tree_4_3_u04_r1_network.node[18].core_layer 	data[18] 	8776
scalar tree_4_3_u04_r1_network.node[18].content_store 	p_hit[18] 	0.31090523671194
scalar tree_4_3_u04_r1_network.node[18].content_store 	hits[18] 	3960
scalar tree_4_3_u04_r1_network.node[18].content_store 	misses[18] 	8777
scalar tree_4_3_u04_r1_network.node[18].content_store 	decision_yes[18] 	23
scalar tree_4_3_u04_r1_network.node[18].content_store 	decision_no[18] 	8753
scalar tree_4_3_u04_r1_network.node[18].content_store 	decision_ratio[18] 	0.0026207839562443
scalar tree_4_3_u04_r1_network.node[19].core_layer 	interests[19] 	12563
scalar tree_4_3_u04_r1_network.node[19].core_layer 	data[19] 	8717
scalar tree_4_3_u04_r1_network.node[19].content_store 	p_hit[19] 	0.30613706917138
scalar tree_4_3_u04_r1_network.node[19].content_store 	hits[19] 	3846
scalar tree_4_3_u04_r1_network.node[19].content_store 	misses[19] 	8717
scalar tree_4_3_u04_r1_network.node[19].content_store 	decision_yes[19] 	27
scalar tree_4_3_u04_r1_network.node[19].content_store 	decision_no[19] 	8690
scalar tree_4_3_u04_r1_network.node[19].content_store 	decision_ratio[19] 	0.0030973958930825
scalar tree_4_3_u04_r1_network.node[20].core_layer 	interests[20] 	12862
scalar tree_4_3_u04_r1_network.node[20].core_layer 	data[20] 	8808
scalar tree_4_3_u04_r1_network.node[20].content_store 	p_hit[20] 	0.31519203856321
scalar tree_4_3_u04_r1_network.node[20].content_store 	hits[20] 	4054
scalar tree_4_3_u04_r1_network.node[20].content_store 	misses[20] 	8808
scalar tree_4_3_u04_r1_network.node[20].content_store 	decision_yes[20] 	33
scalar tree_4_3_u04_r1_network.node[20].content_store 	decision_no[20] 	8775
scalar tree_4_3_u04_r1_network.node[20].content_store 	decision_ratio[20] 	0.0037465940054496
scalar tree_4_3_u04_r1_network.node[21].core_layer 	interests[21] 	12370
scalar tree_4_3_u04_r1_network.node[21].core_layer 	data[21] 	8676
scalar tree_4_3_u04_r1_network.node[21].content_store 	p_hit[21] 	0.29854486661277
scalar tree_4_3_u04_r1_network.node[21].content_store 	hits[21] 	3693
scalar tree_4_3_u04_r1_network.node[21].content_store 	misses[21] 	8677
scalar tree_4_3_u04_r1_network.node[21].content_store 	decision_yes[21] 	26
scalar tree_4_3_u04_r1_network.node[21].content_store 	decision_no[21] 	8650
scalar tree_4_3_u04_r1_network.node[21].content_store 	decision_ratio[21] 	0.0029967727063163
scalar tree_4_3_u04_r1_network.node[22].core_layer 	interests[22] 	12508
scalar tree_4_3_u04_r1_network.node[22].core_layer 	data[22] 	8740
scalar tree_4_3_u04_r1_network.node[22].content_store 	p_hit[22] 	0.30124720179085
scalar tree_4_3_u04_r1_network.node[22].content_store 	hits[22] 	3768
scalar tree_4_3_u04_r1_network.node[22].content_store 	misses[22] 	8740
scalar tree_4_3_u04_r1_network.node[22].content_store 	decision_yes[22] 	23
scalar tree_4_3_u04_r1_network.node[22].content_store 	decision_no[22] 	8717
scalar tree_4_3_u04_r1_network.node[22].content_store 	decision_ratio[22] 	0.0026315789473684
scalar tree_4_3_u04_r1_network.node[23].core_layer 	interests[23] 	12375
scalar tree_4_3_u04_r1_network.node[23].core_layer 	data[23] 	8702
scalar tree_4_3_u04_r1_network.node[23].content_store 	p_hit[23] 	0.29680808080808
scalar tree_4_3_u04_r1_network.node[23].content_store 	hits[23] 	3673
scalar tree_4_3_u04_r1_network.node[23].content_store 	misses[23] 	8702
scalar tree_4_3_u04_r1_network.node[23].content_store 	decision_yes[23] 	25
scalar tree_4_3_u04_r1_network.node[23].content_store 	decision_no[23] 	8677
scalar tree_4_3_u04_r1_network.node[23].content_store 	decision_ratio[23] 	0.0028729027809699
scalar tree_4_3_u04_r1_network.node[24].core_layer 	interests[24] 	12829
scalar tree_4_3_u04_r1_network.node[24].core_layer 	data[24] 	8780
scalar tree_4_3_u04_r1_network.node[24].content_store 	p_hit[24] 	0.31569101254969
scalar tree_4_3_u04_r1_network.node[24].content_store 	hits[24] 	4050
scalar tree_4_3_u04_r1_network.node[24].content_store 	misses[24] 	8779
scalar tree_4_3_u04_r1_network.node[24].content_store 	decision_yes[24] 	23
scalar tree_4_3_u04_r1_network.node[24].content_store 	decision_no[24] 	8757
scalar tree_4_3_u04_r1_network.node[24].content_store 	decision_ratio[24] 	0.002619589977221
scalar tree_4_3_u04_r1_network.node[25].core_layer 	interests[25] 	12619
scalar tree_4_3_u04_r1_network.node[25].core_layer 	data[25] 	8584
scalar tree_4_3_u04_r1_network.node[25].content_store 	p_hit[25] 	0.31959743244314
scalar tree_4_3_u04_r1_network.node[25].content_store 	hits[25] 	4033
scalar tree_4_3_u04_r1_network.node[25].content_store 	misses[25] 	8586
scalar tree_4_3_u04_r1_network.node[25].content_store 	decision_yes[25] 	37
scalar tree_4_3_u04_r1_network.node[25].content_store 	decision_no[25] 	8547
scalar tree_4_3_u04_r1_network.node[25].content_store 	decision_ratio[25] 	0.0043103448275862
scalar tree_4_3_u04_r1_network.node[26].core_layer 	interests[26] 	12149
scalar tree_4_3_u04_r1_network.node[26].core_layer 	data[26] 	8634
scalar tree_4_3_u04_r1_network.node[26].content_store 	p_hit[26] 	0.28932422421598
scalar tree_4_3_u04_r1_network.node[26].content_store 	hits[26] 	3515
scalar tree_4_3_u04_r1_network.node[26].content_store 	misses[26] 	8634
scalar tree_4_3_u04_r1_network.node[26].content_store 	decision_yes[26] 	23
scalar tree_4_3_u04_r1_network.node[26].content_store 	decision_no[26] 	8611
scalar tree_4_3_u04_r1_network.node[26].content_store 	decision_ratio[26] 	0.002663886958536
scalar tree_4_3_u04_r1_network.node[27].core_layer 	interests[27] 	12443
scalar tree_4_3_u04_r1_network.node[27].core_layer 	data[27] 	8779
scalar tree_4_3_u04_r1_network.node[27].content_store 	p_hit[27] 	0.29446275014064
scalar tree_4_3_u04_r1_network.node[27].content_store 	hits[27] 	3664
scalar tree_4_3_u04_r1_network.node[27].content_store 	misses[27] 	8779
scalar tree_4_3_u04_r1_network.node[27].content_store 	decision_yes[27] 	25
scalar tree_4_3_u04_r1_network.node[27].content_store 	decision_no[27] 	8754
scalar tree_4_3_u04_r1_network.node[27].content_store 	decision_ratio[27] 	0.0028477047499715
scalar tree_4_3_u04_r1_network.node[28].core_layer 	interests[28] 	12794
scalar tree_4_3_u04_r1_network.node[28].core_layer 	data[28] 	8828
scalar tree_4_3_u04_r1_network.node[28].content_store 	p_hit[28] 	0.30998905737064
scalar tree_4_3_u04_r1_network.node[28].content_store 	hits[28] 	3966
scalar tree_4_3_u04_r1_network.node[28].content_store 	misses[28] 	8828
scalar tree_4_3_u04_r1_network.node[28].content_store 	decision_yes[28] 	39
scalar tree_4_3_u04_r1_network.node[28].content_store 	decision_no[28] 	8789
scalar tree_4_3_u04_r1_network.node[28].content_store 	decision_ratio[28] 	0.0044177616674218
scalar tree_4_3_u04_r1_network.node[29].core_layer 	interests[29] 	12269
scalar tree_4_3_u04_r1_network.node[29].core_layer 	data[29] 	8625
scalar tree_4_3_u04_r1_network.node[29].content_store 	p_hit[29] 	0.29700872116717
scalar tree_4_3_u04_r1_network.node[29].content_store 	hits[29] 	3644
scalar tree_4_3_u04_r1_network.node[29].content_store 	misses[29] 	8625
scalar tree_4_3_u04_r1_network.node[29].content_store 	decision_yes[29] 	32
scalar tree_4_3_u04_r1_network.node[29].content_store 	decision_no[29] 	8593
scalar tree_4_3_u04_r1_network.node[29].content_store 	decision_ratio[29] 	0.0037101449275362
scalar tree_4_3_u04_r1_network.node[30].core_layer 	interests[30] 	12625
scalar tree_4_3_u04_r1_network.node[30].core_layer 	data[30] 	8876
scalar tree_4_3_u04_r1_network.node[30].content_store 	p_hit[30] 	0.29687128712871
scalar tree_4_3_u04_r1_network.node[30].content_store 	hits[30] 	3748
scalar tree_4_3_u04_r1_network.node[30].content_store 	misses[30] 	8877
scalar tree_4_3_u04_r1_network.node[30].content_store 	decision_yes[30] 	24
scalar tree_4_3_u04_r1_network.node[30].content_store 	decision_no[30] 	8852
scalar tree_4_3_u04_r1_network.node[30].content_store 	decision_ratio[30] 	0.0027039206849932
scalar tree_4_3_u04_r1_network.node[31].core_layer 	interests[31] 	12616
scalar tree_4_3_u04_r1_network.node[31].core_layer 	data[31] 	8880
scalar tree_4_3_u04_r1_network.node[31].content_store 	p_hit[31] 	0.29613189600507
scalar tree_4_3_u04_r1_network.node[31].content_store 	hits[31] 	3736
scalar tree_4_3_u04_r1_network.node[31].content_store 	misses[31] 	8880
scalar tree_4_3_u04_r1_network.node[31].content_store 	decision_yes[31] 	23
scalar tree_4_3_u04_r1_network.node[31].content_store 	decision_no[31] 	8857
scalar tree_4_3_u04_r1_network.node[31].content_store 	decision_ratio[31] 	0.0025900900900901
scalar tree_4_3_u04_r1_network.node[32].core_layer 	interests[32] 	12464
scalar tree_4_3_u04_r1_network.node[32].core_layer 	data[32] 	8704
scalar tree_4_3_u04_r1_network.node[32].content_store 	p_hit[32] 	0.30166880616175
scalar tree_4_3_u04_r1_network.node[32].content_store 	hits[32] 	3760
scalar tree_4_3_u04_r1_network.node[32].content_store 	misses[32] 	8704
scalar tree_4_3_u04_r1_network.node[32].content_store 	decision_yes[32] 	28
scalar tree_4_3_u04_r1_network.node[32].content_store 	decision_no[32] 	8676
scalar tree_4_3_u04_r1_network.node[32].content_store 	decision_ratio[32] 	0.0032169117647059
scalar tree_4_3_u04_r1_network.node[33].core_layer 	interests[33] 	12587
scalar tree_4_3_u04_r1_network.node[33].core_layer 	data[33] 	8806
scalar tree_4_3_u04_r1_network.node[33].content_store 	p_hit[33] 	0.30038929053786
scalar tree_4_3_u04_r1_network.node[33].content_store 	hits[33] 	3781
scalar tree_4_3_u04_r1_network.node[33].content_store 	misses[33] 	8806
scalar tree_4_3_u04_r1_network.node[33].content_store 	decision_yes[33] 	26
scalar tree_4_3_u04_r1_network.node[33].content_store 	decision_no[33] 	8780
scalar tree_4_3_u04_r1_network.node[33].content_store 	decision_ratio[33] 	0.0029525323642971
scalar tree_4_3_u04_r1_network.node[34].core_layer 	interests[34] 	12728
scalar tree_4_3_u04_r1_network.node[34].core_layer 	data[34] 	8841
scalar tree_4_3_u04_r1_network.node[34].content_store 	p_hit[34] 	0.3053896920176
scalar tree_4_3_u04_r1_network.node[34].content_store 	hits[34] 	3887
scalar tree_4_3_u04_r1_network.node[34].content_store 	misses[34] 	8841
scalar tree_4_3_u04_r1_network.node[34].content_store 	decision_yes[34] 	21
scalar tree_4_3_u04_r1_network.node[34].content_store 	decision_no[34] 	8820
scalar tree_4_3_u04_r1_network.node[34].content_store 	decision_ratio[34] 	0.002375296912114
scalar tree_4_3_u04_r1_network.node[35].core_layer 	interests[35] 	12247
scalar tree_4_3_u04_r1_network.node[35].core_layer 	data[35] 	8728
scalar tree_4_3_u04_r1_network.node[35].content_store 	p_hit[35] 	0.28733567404262
scalar tree_4_3_u04_r1_network.node[35].content_store 	hits[35] 	3519
scalar tree_4_3_u04_r1_network.node[35].content_store 	misses[35] 	8728
scalar tree_4_3_u04_r1_network.node[35].content_store 	decision_yes[35] 	23
scalar tree_4_3_u04_r1_network.node[35].content_store 	decision_no[35] 	8705
scalar tree_4_3_u04_r1_network.node[35].content_store 	decision_ratio[35] 	0.0026351970669111
scalar tree_4_3_u04_r1_network.node[36].core_layer 	interests[36] 	12679
scalar tree_4_3_u04_r1_network.node[36].core_layer 	data[36] 	8801
scalar tree_4_3_u04_r1_network.node[36].content_store 	p_hit[36] 	0.30586008360281
scalar tree_4_3_u04_r1_network.node[36].content_store 	hits[36] 	3878
scalar tree_4_3_u04_r1_network.node[36].content_store 	misses[36] 	8801
scalar tree_4_3_u04_r1_network.node[36].content_store 	decision_yes[36] 	19
scalar tree_4_3_u04_r1_network.node[36].content_store 	decision_no[36] 	8782
scalar tree_4_3_u04_r1_network.node[36].content_store 	decision_ratio[36] 	0.0021588455857289
scalar tree_4_3_u04_r1_network.node[37].core_layer 	interests[37] 	13207
scalar tree_4_3_u04_r1_network.node[37].core_layer 	data[37] 	9006
scalar tree_4_3_u04_r1_network.node[37].content_store 	p_hit[37] 	0.31808889225411
scalar tree_4_3_u04_r1_network.node[37].content_store 	hits[37] 	4201
scalar tree_4_3_u04_r1_network.node[37].content_store 	misses[37] 	9006
scalar tree_4_3_u04_r1_network.node[37].content_store 	decision_yes[37] 	25
scalar tree_4_3_u04_r1_network.node[37].content_store 	decision_no[37] 	8981
scalar tree_4_3_u04_r1_network.node[37].content_store 	decision_ratio[37] 	0.0027759271596713
scalar tree_4_3_u04_r1_network.node[38].core_layer 	interests[38] 	12407
scalar tree_4_3_u04_r1_network.node[38].core_layer 	data[38] 	8782
scalar tree_4_3_u04_r1_network.node[38].content_store 	p_hit[38] 	0.29217377287015
scalar tree_4_3_u04_r1_network.node[38].content_store 	hits[38] 	3625
scalar tree_4_3_u04_r1_network.node[38].content_store 	misses[38] 	8782
scalar tree_4_3_u04_r1_network.node[38].content_store 	decision_yes[38] 	35
scalar tree_4_3_u04_r1_network.node[38].content_store 	decision_no[38] 	8747
scalar tree_4_3_u04_r1_network.node[38].content_store 	decision_ratio[38] 	0.0039854247324072
scalar tree_4_3_u04_r1_network.node[39].core_layer 	interests[39] 	12287
scalar tree_4_3_u04_r1_network.node[39].core_layer 	data[39] 	8726
scalar tree_4_3_u04_r1_network.node[39].content_store 	p_hit[39] 	0.28981850736551
scalar tree_4_3_u04_r1_network.node[39].content_store 	hits[39] 	3561
scalar tree_4_3_u04_r1_network.node[39].content_store 	misses[39] 	8726
scalar tree_4_3_u04_r1_network.node[39].content_store 	decision_yes[39] 	22
scalar tree_4_3_u04_r1_network.node[39].content_store 	decision_no[39] 	8704
scalar tree_4_3_u04_r1_network.node[39].content_store 	decision_ratio[39] 	0.0025212010084804
scalar tree_4_3_u04_r1_network.client[13] 	hdistance[13] 	2.6495067561966
scalar tree_4_3_u04_r1_network.client[13] 	downloads[13] 	12063
scalar tree_4_3_u04_r1_network.client[13] 	avg_time[13] 	0.004116700438
scalar tree_4_3_u04_r1_network.client[14] 	hdistance[14] 	2.6571048474266
scalar tree_4_3_u04_r1_network.client[14] 	downloads[14] 	12027
scalar tree_4_3_u04_r1_network.client[14] 	avg_time[14] 	0.004128541134
scalar tree_4_3_u04_r1_network.client[15] 	hdistance[15] 	2.6461857379768
scalar tree_4_3_u04_r1_network.client[15] 	downloads[15] 	12060
scalar tree_4_3_u04_r1_network.client[15] 	avg_time[15] 	0.004115719968
scalar tree_4_3_u04_r1_network.client[16] 	hdistance[16] 	2.591233604516
scalar tree_4_3_u04_r1_network.client[16] 	downloads[16] 	12046
scalar tree_4_3_u04_r1_network.client[16] 	avg_time[16] 	0.004009626776
scalar tree_4_3_u04_r1_network.client[17] 	hdistance[17] 	2.6602843290328
scalar tree_4_3_u04_r1_network.client[17] 	downloads[17] 	12169
scalar tree_4_3_u04_r1_network.client[17] 	avg_time[17] 	0.004153008719
scalar tree_4_3_u04_r1_network.client[18] 	hdistance[18] 	2.5730206254158
scalar tree_4_3_u04_r1_network.client[18] 	downloads[18] 	12024
scalar tree_4_3_u04_r1_network.client[18] 	avg_time[18] 	0.004015676192
scalar tree_4_3_u04_r1_network.client[19] 	hdistance[19] 	2.5988560059687
scalar tree_4_3_u04_r1_network.client[19] 	downloads[19] 	12063
scalar tree_4_3_u04_r1_network.client[19] 	avg_time[19] 	0.004075434265
scalar tree_4_3_u04_r1_network.client[20] 	hdistance[20] 	2.58431928012
scalar tree_4_3_u04_r1_network.client[20] 	downloads[20] 	12002
scalar tree_4_3_u04_r1_network.client[20] 	avg_time[20] 	0.004035188401
scalar tree_4_3_u04_r1_network.client[21] 	hdistance[21] 	2.6156505607555
scalar tree_4_3_u04_r1_network.client[21] 	downloads[21] 	11859
scalar tree_4_3_u04_r1_network.client[21] 	avg_time[21] 	0.0041123168
scalar tree_4_3_u04_r1_network.client[22] 	hdistance[22] 	2.6337160925279
scalar tree_4_3_u04_r1_network.client[22] 	downloads[22] 	12018
scalar tree_4_3_u04_r1_network.client[22] 	avg_time[22] 	0.004096208413
scalar tree_4_3_u04_r1_network.client[23] 	hdistance[23] 	2.6299673722078
scalar tree_4_3_u04_r1_network.client[23] 	downloads[23] 	11953
scalar tree_4_3_u04_r1_network.client[23] 	avg_time[23] 	0.004089848931
scalar tree_4_3_u04_r1_network.client[24] 	hdistance[24] 	2.570942582144
scalar tree_4_3_u04_r1_network.client[24] 	downloads[24] 	12052
scalar tree_4_3_u04_r1_network.client[24] 	avg_time[24] 	0.003980415166
scalar tree_4_3_u04_r1_network.client[25] 	hdistance[25] 	2.5785053863771
scalar tree_4_3_u04_r1_network.client[25] 	downloads[25] 	11789
scalar tree_4_3_u04_r1_network.client[25] 	avg_time[25] 	0.003992974921
scalar tree_4_3_u04_r1_network.client[26] 	hdistance[26] 	2.6660736975858
scalar tree_4_3_u04_r1_network.client[26] 	downloads[26] 	11805
scalar tree_4_3_u04_r1_network.client[26] 	avg_time[26] 	0.00415484669
scalar tree_4_3_u04_r1_network.client[27] 	hdistance[27] 	2.6495535714286
scalar tree_4_3_u04_r1_network.client[27] 	downloads[27] 	12096
scalar tree_4_3_u04_r1_network.client[27] 	avg_time[27] 	0.004122020761
scalar tree_4_3_u04_r1_network.client[28] 	hdistance[28] 	2.5987988989908
scalar tree_4_3_u04_r1_network.client[28] 	downloads[28] 	11989
scalar tree_4_3_u04_r1_network.client[28] 	avg_time[28] 	0.004021349915
scalar tree_4_3_u04_r1_network.client[29] 	hdistance[29] 	2.6409117573117
scalar tree_4_3_u04_r1_network.client[29] 	downloads[29] 	11933
scalar tree_4_3_u04_r1_network.client[29] 	avg_time[29] 	0.004102591052
scalar tree_4_3_u04_r1_network.client[30] 	hdistance[30] 	2.6448758908823
scalar tree_4_3_u04_r1_network.client[30] 	downloads[30] 	12207
scalar tree_4_3_u04_r1_network.client[30] 	avg_time[30] 	0.004112042431
scalar tree_4_3_u04_r1_network.client[31] 	hdistance[31] 	2.6718490189558
scalar tree_4_3_u04_r1_network.client[31] 	downloads[31] 	12028
scalar tree_4_3_u04_r1_network.client[31] 	avg_time[31] 	0.004173880426
scalar tree_4_3_u04_r1_network.client[32] 	hdistance[32] 	2.625313492727
scalar tree_4_3_u04_r1_network.client[32] 	downloads[32] 	11962
scalar tree_4_3_u04_r1_network.client[32] 	avg_time[32] 	0.004105999389
scalar tree_4_3_u04_r1_network.client[33] 	hdistance[33] 	2.6440466278102
scalar tree_4_3_u04_r1_network.client[33] 	downloads[33] 	12010
scalar tree_4_3_u04_r1_network.client[33] 	avg_time[33] 	0.004133959019
scalar tree_4_3_u04_r1_network.client[34] 	hdistance[34] 	2.6159625980965
scalar tree_4_3_u04_r1_network.client[34] 	downloads[34] 	11978
scalar tree_4_3_u04_r1_network.client[34] 	avg_time[34] 	0.004070432945
scalar tree_4_3_u04_r1_network.client[35] 	hdistance[35] 	2.6590720106436
scalar tree_4_3_u04_r1_network.client[35] 	downloads[35] 	12026
scalar tree_4_3_u04_r1_network.client[35] 	avg_time[35] 	0.004157821711
scalar tree_4_3_u04_r1_network.client[36] 	hdistance[36] 	2.6173614599029
scalar tree_4_3_u04_r1_network.client[36] 	downloads[36] 	11946
scalar tree_4_3_u04_r1_network.client[36] 	avg_time[36] 	0.004069643758
scalar tree_4_3_u04_r1_network.client[37] 	hdistance[37] 	2.6044055027841
scalar tree_4_3_u04_r1_network.client[37] 	downloads[37] 	12212
scalar tree_4_3_u04_r1_network.client[37] 	avg_time[37] 	0.004049128955
scalar tree_4_3_u04_r1_network.client[38] 	hdistance[38] 	2.6423553027768
scalar tree_4_3_u04_r1_network.client[38] 	downloads[38] 	11956
scalar tree_4_3_u04_r1_network.client[38] 	avg_time[38] 	0.004132482777
scalar tree_4_3_u04_r1_network.client[39] 	hdistance[39] 	2.6354210218246
scalar tree_4_3_u04_r1_network.client[39] 	downloads[39] 	11959
scalar tree_4_3_u04_r1_network.client[39] 	avg_time[39] 	0.004124254907
