version 2
run General-280-20160901-03:28:14-8710
attr a 0.9
attr cd ffc0.25
attr configname General
attr cr lru
attr datetime 20160901-03:28:14
attr experiment General
attr fsize 1
attr inifile hw5115/scenario_Y/omnetp.ini
attr iterationvars "$name=tree_4_3, $un=04, $rep=14, $cd=ffc0.25, $cr=lru, $fsize=1, $a=0.9, $sl=nrr, $ttl=1000, $variance=0.05"
attr iterationvars2 "$name=tree_4_3, $un=04, $rep=14, $cd=ffc0.25, $cr=lru, $fsize=1, $a=0.9, $sl=nrr, $ttl=1000, $variance=0.05, $repetition=0"
attr measurement "$name=tree_4_3, $un=04, $rep=14, $cd=ffc0.25, $cr=lru, $fsize=1, $a=0.9, $sl=nrr, $ttl=1000, $variance=0.05"
attr name tree_4_3
attr network networks.${name}_u${un}_r${rep}_network
attr processid 8710
attr rep 14
attr repetition 0
attr replication #0
attr resultdir results
attr runnumber 280
attr seedset 14
attr sl nrr
attr ttl 1000
attr un 04
attr variance 0.05

scalar . 	a 	0.9
scalar . 	fsize 	1
scalar . 	rep 	14
scalar . 	ttl 	1000
scalar . 	un 	04
scalar . 	variance 	0.05
scalar tree_4_3_u04_r14_network.content_distribution 	repo-0 	0
scalar tree_4_3_u04_r14_network.content_distribution 	client-0 	13
scalar tree_4_3_u04_r14_network.content_distribution 	client-1 	14
scalar tree_4_3_u04_r14_network.content_distribution 	client-2 	15
scalar tree_4_3_u04_r14_network.content_distribution 	client-3 	16
scalar tree_4_3_u04_r14_network.content_distribution 	client-4 	17
scalar tree_4_3_u04_r14_network.content_distribution 	client-5 	18
scalar tree_4_3_u04_r14_network.content_distribution 	client-6 	19
scalar tree_4_3_u04_r14_network.content_distribution 	client-7 	20
scalar tree_4_3_u04_r14_network.content_distribution 	client-8 	21
scalar tree_4_3_u04_r14_network.content_distribution 	client-9 	22
scalar tree_4_3_u04_r14_network.content_distribution 	client-10 	23
scalar tree_4_3_u04_r14_network.content_distribution 	client-11 	24
scalar tree_4_3_u04_r14_network.content_distribution 	client-12 	25
scalar tree_4_3_u04_r14_network.content_distribution 	client-13 	26
scalar tree_4_3_u04_r14_network.content_distribution 	client-14 	27
scalar tree_4_3_u04_r14_network.content_distribution 	client-15 	28
scalar tree_4_3_u04_r14_network.content_distribution 	client-16 	29
scalar tree_4_3_u04_r14_network.content_distribution 	client-17 	30
scalar tree_4_3_u04_r14_network.content_distribution 	client-18 	31
scalar tree_4_3_u04_r14_network.content_distribution 	client-19 	32
scalar tree_4_3_u04_r14_network.content_distribution 	client-20 	33
scalar tree_4_3_u04_r14_network.content_distribution 	client-21 	34
scalar tree_4_3_u04_r14_network.content_distribution 	client-22 	35
scalar tree_4_3_u04_r14_network.content_distribution 	client-23 	36
scalar tree_4_3_u04_r14_network.content_distribution 	client-24 	37
scalar tree_4_3_u04_r14_network.content_distribution 	client-25 	38
scalar tree_4_3_u04_r14_network.content_distribution 	client-26 	39
scalar tree_4_3_u04_r14_network.content_distribution 	repo-0_card 	100000
scalar tree_4_3_u04_r14_network.content_distribution 	repo-0_price 	0
scalar tree_4_3_u04_r14_network.statistics 	stabilization_time 	1823.1
scalar tree_4_3_u04_r14_network.statistics 	p_hit 	0.2316931689437
scalar tree_4_3_u04_r14_network.statistics 	interests 	24689.85
scalar tree_4_3_u04_r14_network.statistics 	data 	16607.425
scalar tree_4_3_u04_r14_network.statistics 	hdistance 	2.6187837113563
scalar tree_4_3_u04_r14_network.statistics 	avg_time 	0.004109499217
scalar tree_4_3_u04_r14_network.statistics 	downloads 	323296
scalar tree_4_3_u04_r14_network.statistics 	total_cost 	0
scalar tree_4_3_u04_r14_network.statistics 	total_replicas 	100000
scalar tree_4_3_u04_r14_network.statistics 	inner_hit 	0.43597198851826
scalar tree_4_3_u04_r14_network.node[0].core_layer 	interests[0] 	185656
scalar tree_4_3_u04_r14_network.node[0].core_layer 	repo_load[0] 	182348
scalar tree_4_3_u04_r14_network.node[0].core_layer 	data[0] 	0
scalar tree_4_3_u04_r14_network.node[0].core_layer 	repo_int[0] 	182348
scalar tree_4_3_u04_r14_network.node[0].content_store 	p_hit[0] 	0.017817899771621
scalar tree_4_3_u04_r14_network.node[0].content_store 	hits[0] 	3308
scalar tree_4_3_u04_r14_network.node[0].content_store 	misses[0] 	182348
scalar tree_4_3_u04_r14_network.node[0].content_store 	decision_yes[0] 	203
scalar tree_4_3_u04_r14_network.node[0].content_store 	decision_no[0] 	182145
scalar tree_4_3_u04_r14_network.node[0].content_store 	decision_ratio[0] 	0.0011132559720973
scalar tree_4_3_u04_r14_network.node[1].core_layer 	interests[1] 	119257
scalar tree_4_3_u04_r14_network.node[1].core_layer 	data[1] 	115799
scalar tree_4_3_u04_r14_network.node[1].content_store 	p_hit[1] 	0.028996201480836
scalar tree_4_3_u04_r14_network.node[1].content_store 	hits[1] 	3458
scalar tree_4_3_u04_r14_network.node[1].content_store 	misses[1] 	115799
scalar tree_4_3_u04_r14_network.node[1].content_store 	decision_yes[1] 	125
scalar tree_4_3_u04_r14_network.node[1].content_store 	decision_no[1] 	115674
scalar tree_4_3_u04_r14_network.node[1].content_store 	decision_ratio[1] 	0.0010794566447033
scalar tree_4_3_u04_r14_network.node[2].core_layer 	interests[2] 	39488
scalar tree_4_3_u04_r14_network.node[2].core_layer 	data[2] 	37590
scalar tree_4_3_u04_r14_network.node[2].content_store 	p_hit[2] 	0.048065235008104
scalar tree_4_3_u04_r14_network.node[2].content_store 	hits[2] 	1898
scalar tree_4_3_u04_r14_network.node[2].content_store 	misses[2] 	37590
scalar tree_4_3_u04_r14_network.node[2].content_store 	decision_yes[2] 	55
scalar tree_4_3_u04_r14_network.node[2].content_store 	decision_no[2] 	37535
scalar tree_4_3_u04_r14_network.node[2].content_store 	decision_ratio[2] 	0.00146315509444
scalar tree_4_3_u04_r14_network.node[3].core_layer 	interests[3] 	52624
scalar tree_4_3_u04_r14_network.node[3].core_layer 	data[3] 	48451
scalar tree_4_3_u04_r14_network.node[3].content_store 	p_hit[3] 	0.079298418972332
scalar tree_4_3_u04_r14_network.node[3].content_store 	hits[3] 	4173
scalar tree_4_3_u04_r14_network.node[3].content_store 	misses[3] 	48451
scalar tree_4_3_u04_r14_network.node[3].content_store 	decision_yes[3] 	120
scalar tree_4_3_u04_r14_network.node[3].content_store 	decision_no[3] 	48331
scalar tree_4_3_u04_r14_network.node[3].content_store 	decision_ratio[3] 	0.0024767290664795
scalar tree_4_3_u04_r14_network.node[4].core_layer 	interests[4] 	34124
scalar tree_4_3_u04_r14_network.node[4].core_layer 	data[4] 	31579
scalar tree_4_3_u04_r14_network.node[4].content_store 	p_hit[4] 	0.074580940100809
scalar tree_4_3_u04_r14_network.node[4].content_store 	hits[4] 	2545
scalar tree_4_3_u04_r14_network.node[4].content_store 	misses[4] 	31579
scalar tree_4_3_u04_r14_network.node[4].content_store 	decision_yes[4] 	64
scalar tree_4_3_u04_r14_network.node[4].content_store 	decision_no[4] 	31515
scalar tree_4_3_u04_r14_network.node[4].content_store 	decision_ratio[4] 	0.0020266632888945
scalar tree_4_3_u04_r14_network.node[5].core_layer 	interests[5] 	27629
scalar tree_4_3_u04_r14_network.node[5].core_layer 	data[5] 	24562
scalar tree_4_3_u04_r14_network.node[5].content_store 	p_hit[5] 	0.11100655108763
scalar tree_4_3_u04_r14_network.node[5].content_store 	hits[5] 	3067
scalar tree_4_3_u04_r14_network.node[5].content_store 	misses[5] 	24562
scalar tree_4_3_u04_r14_network.node[5].content_store 	decision_yes[5] 	67
scalar tree_4_3_u04_r14_network.node[5].content_store 	decision_no[5] 	24495
scalar tree_4_3_u04_r14_network.node[5].content_store 	decision_ratio[5] 	0.0027277908965068
scalar tree_4_3_u04_r14_network.node[6].core_layer 	interests[6] 	22609
scalar tree_4_3_u04_r14_network.node[6].core_layer 	data[6] 	18659
scalar tree_4_3_u04_r14_network.node[6].content_store 	p_hit[6] 	0.1747091866071
scalar tree_4_3_u04_r14_network.node[6].content_store 	hits[6] 	3950
scalar tree_4_3_u04_r14_network.node[6].content_store 	misses[6] 	18659
scalar tree_4_3_u04_r14_network.node[6].content_store 	decision_yes[6] 	82
scalar tree_4_3_u04_r14_network.node[6].content_store 	decision_no[6] 	18577
scalar tree_4_3_u04_r14_network.node[6].content_store 	decision_ratio[6] 	0.0043946620933598
scalar tree_4_3_u04_r14_network.node[7].core_layer 	interests[7] 	36432
scalar tree_4_3_u04_r14_network.node[7].core_layer 	data[7] 	33052
scalar tree_4_3_u04_r14_network.node[7].content_store 	p_hit[7] 	0.09280303030303
scalar tree_4_3_u04_r14_network.node[7].content_store 	hits[7] 	3381
scalar tree_4_3_u04_r14_network.node[7].content_store 	misses[7] 	33051
scalar tree_4_3_u04_r14_network.node[7].content_store 	decision_yes[7] 	73
scalar tree_4_3_u04_r14_network.node[7].content_store 	decision_no[7] 	32979
scalar tree_4_3_u04_r14_network.node[7].content_store 	decision_ratio[7] 	0.0022086409294445
scalar tree_4_3_u04_r14_network.node[8].core_layer 	interests[8] 	27337
scalar tree_4_3_u04_r14_network.node[8].core_layer 	data[8] 	25092
scalar tree_4_3_u04_r14_network.node[8].content_store 	p_hit[8] 	0.082123129824048
scalar tree_4_3_u04_r14_network.node[8].content_store 	hits[8] 	2245
scalar tree_4_3_u04_r14_network.node[8].content_store 	misses[8] 	25092
scalar tree_4_3_u04_r14_network.node[8].content_store 	decision_yes[8] 	62
scalar tree_4_3_u04_r14_network.node[8].content_store 	decision_no[8] 	25030
scalar tree_4_3_u04_r14_network.node[8].content_store 	decision_ratio[8] 	0.0024709070620118
scalar tree_4_3_u04_r14_network.node[9].core_layer 	interests[9] 	20699
scalar tree_4_3_u04_r14_network.node[9].core_layer 	data[9] 	17582
scalar tree_4_3_u04_r14_network.node[9].content_store 	p_hit[9] 	0.15053867336586
scalar tree_4_3_u04_r14_network.node[9].content_store 	hits[9] 	3116
scalar tree_4_3_u04_r14_network.node[9].content_store 	misses[9] 	17583
scalar tree_4_3_u04_r14_network.node[9].content_store 	decision_yes[9] 	50
scalar tree_4_3_u04_r14_network.node[9].content_store 	decision_no[9] 	17532
scalar tree_4_3_u04_r14_network.node[9].content_store 	decision_ratio[9] 	0.0028438175406666
scalar tree_4_3_u04_r14_network.node[10].core_layer 	interests[10] 	28814
scalar tree_4_3_u04_r14_network.node[10].core_layer 	data[10] 	25442
scalar tree_4_3_u04_r14_network.node[10].content_store 	p_hit[10] 	0.11706115082946
scalar tree_4_3_u04_r14_network.node[10].content_store 	hits[10] 	3373
scalar tree_4_3_u04_r14_network.node[10].content_store 	misses[10] 	25441
scalar tree_4_3_u04_r14_network.node[10].content_store 	decision_yes[10] 	60
scalar tree_4_3_u04_r14_network.node[10].content_store 	decision_no[10] 	25382
scalar tree_4_3_u04_r14_network.node[10].content_store 	decision_ratio[10] 	0.0023583051646883
scalar tree_4_3_u04_r14_network.node[11].core_layer 	interests[11] 	27607
scalar tree_4_3_u04_r14_network.node[11].core_layer 	data[11] 	25266
scalar tree_4_3_u04_r14_network.node[11].content_store 	p_hit[11] 	0.084724888615206
scalar tree_4_3_u04_r14_network.node[11].content_store 	hits[11] 	2339
scalar tree_4_3_u04_r14_network.node[11].content_store 	misses[11] 	25268
scalar tree_4_3_u04_r14_network.node[11].content_store 	decision_yes[11] 	54
scalar tree_4_3_u04_r14_network.node[11].content_store 	decision_no[11] 	25212
scalar tree_4_3_u04_r14_network.node[11].content_store 	decision_ratio[11] 	0.0021372595582997
scalar tree_4_3_u04_r14_network.node[12].core_layer 	interests[12] 	27279
scalar tree_4_3_u04_r14_network.node[12].core_layer 	data[12] 	24877
scalar tree_4_3_u04_r14_network.node[12].content_store 	p_hit[12] 	0.087943106418857
scalar tree_4_3_u04_r14_network.node[12].content_store 	hits[12] 	2399
scalar tree_4_3_u04_r14_network.node[12].content_store 	misses[12] 	24880
scalar tree_4_3_u04_r14_network.node[12].content_store 	decision_yes[12] 	57
scalar tree_4_3_u04_r14_network.node[12].content_store 	decision_no[12] 	24820
scalar tree_4_3_u04_r14_network.node[12].content_store 	decision_ratio[12] 	0.0022912730634723
scalar tree_4_3_u04_r14_network.node[13].core_layer 	interests[13] 	12333
scalar tree_4_3_u04_r14_network.node[13].core_layer 	data[13] 	8809
scalar tree_4_3_u04_r14_network.node[13].content_store 	p_hit[13] 	0.28573745236358
scalar tree_4_3_u04_r14_network.node[13].content_store 	hits[13] 	3524
scalar tree_4_3_u04_r14_network.node[13].content_store 	misses[13] 	8809
scalar tree_4_3_u04_r14_network.node[13].content_store 	decision_yes[13] 	33
scalar tree_4_3_u04_r14_network.node[13].content_store 	decision_no[13] 	8776
scalar tree_4_3_u04_r14_network.node[13].content_store 	decision_ratio[13] 	0.0037461686911114
scalar tree_4_3_u04_r14_network.node[14].core_layer 	interests[14] 	12678
scalar tree_4_3_u04_r14_network.node[14].core_layer 	data[14] 	8773
scalar tree_4_3_u04_r14_network.node[14].content_store 	p_hit[14] 	0.30801388231582
scalar tree_4_3_u04_r14_network.node[14].content_store 	hits[14] 	3905
scalar tree_4_3_u04_r14_network.node[14].content_store 	misses[14] 	8773
scalar tree_4_3_u04_r14_network.node[14].content_store 	decision_yes[14] 	30
scalar tree_4_3_u04_r14_network.node[14].content_store 	decision_no[14] 	8743
scalar tree_4_3_u04_r14_network.node[14].content_store 	decision_ratio[14] 	0.0034195828108971
scalar tree_4_3_u04_r14_network.node[15].core_layer 	interests[15] 	12815
scalar tree_4_3_u04_r14_network.node[15].core_layer 	data[15] 	8706
scalar tree_4_3_u04_r14_network.node[15].content_store 	p_hit[15] 	0.32063987514631
scalar tree_4_3_u04_r14_network.node[15].content_store 	hits[15] 	4109
scalar tree_4_3_u04_r14_network.node[15].content_store 	misses[15] 	8706
scalar tree_4_3_u04_r14_network.node[15].content_store 	decision_yes[15] 	38
scalar tree_4_3_u04_r14_network.node[15].content_store 	decision_no[15] 	8668
scalar tree_4_3_u04_r14_network.node[15].content_store 	decision_ratio[15] 	0.0043648058810016
scalar tree_4_3_u04_r14_network.node[16].core_layer 	interests[16] 	12675
scalar tree_4_3_u04_r14_network.node[16].core_layer 	data[16] 	8741
scalar tree_4_3_u04_r14_network.node[16].content_store 	p_hit[16] 	0.31037475345168
scalar tree_4_3_u04_r14_network.node[16].content_store 	hits[16] 	3934
scalar tree_4_3_u04_r14_network.node[16].content_store 	misses[16] 	8741
scalar tree_4_3_u04_r14_network.node[16].content_store 	decision_yes[16] 	25
scalar tree_4_3_u04_r14_network.node[16].content_store 	decision_no[16] 	8716
scalar tree_4_3_u04_r14_network.node[16].content_store 	decision_ratio[16] 	0.0028600846585059
scalar tree_4_3_u04_r14_network.node[17].core_layer 	interests[17] 	12407
scalar tree_4_3_u04_r14_network.node[17].core_layer 	data[17] 	8691
scalar tree_4_3_u04_r14_network.node[17].content_store 	p_hit[17] 	0.29950834206496
scalar tree_4_3_u04_r14_network.node[17].content_store 	hits[17] 	3716
scalar tree_4_3_u04_r14_network.node[17].content_store 	misses[17] 	8691
scalar tree_4_3_u04_r14_network.node[17].content_store 	decision_yes[17] 	18
scalar tree_4_3_u04_r14_network.node[17].content_store 	decision_no[17] 	8673
scalar tree_4_3_u04_r14_network.node[17].content_store 	decision_ratio[17] 	0.0020711080428029
scalar tree_4_3_u04_r14_network.node[18].core_layer 	interests[18] 	12171
scalar tree_4_3_u04_r14_network.node[18].core_layer 	data[18] 	8607
scalar tree_4_3_u04_r14_network.node[18].content_store 	p_hit[18] 	0.29282721222578
scalar tree_4_3_u04_r14_network.node[18].content_store 	hits[18] 	3564
scalar tree_4_3_u04_r14_network.node[18].content_store 	misses[18] 	8607
scalar tree_4_3_u04_r14_network.node[18].content_store 	decision_yes[18] 	26
scalar tree_4_3_u04_r14_network.node[18].content_store 	decision_no[18] 	8581
scalar tree_4_3_u04_r14_network.node[18].content_store 	decision_ratio[18] 	0.0030207970256768
scalar tree_4_3_u04_r14_network.node[19].core_layer 	interests[19] 	12492
scalar tree_4_3_u04_r14_network.node[19].core_layer 	data[19] 	8893
scalar tree_4_3_u04_r14_network.node[19].content_store 	p_hit[19] 	0.28810438680756
scalar tree_4_3_u04_r14_network.node[19].content_store 	hits[19] 	3599
scalar tree_4_3_u04_r14_network.node[19].content_store 	misses[19] 	8893
scalar tree_4_3_u04_r14_network.node[19].content_store 	decision_yes[19] 	33
scalar tree_4_3_u04_r14_network.node[19].content_store 	decision_no[19] 	8860
scalar tree_4_3_u04_r14_network.node[19].content_store 	decision_ratio[19] 	0.0037107837625098
scalar tree_4_3_u04_r14_network.node[20].core_layer 	interests[20] 	12997
scalar tree_4_3_u04_r14_network.node[20].core_layer 	data[20] 	8733
scalar tree_4_3_u04_r14_network.node[20].content_store 	p_hit[20] 	0.32807570977918
scalar tree_4_3_u04_r14_network.node[20].content_store 	hits[20] 	4264
scalar tree_4_3_u04_r14_network.node[20].content_store 	misses[20] 	8733
scalar tree_4_3_u04_r14_network.node[20].content_store 	decision_yes[20] 	29
scalar tree_4_3_u04_r14_network.node[20].content_store 	decision_no[20] 	8704
scalar tree_4_3_u04_r14_network.node[20].content_store 	decision_ratio[20] 	0.0033207374327264
scalar tree_4_3_u04_r14_network.node[21].core_layer 	interests[21] 	12468
scalar tree_4_3_u04_r14_network.node[21].core_layer 	data[21] 	8755
scalar tree_4_3_u04_r14_network.node[21].content_store 	p_hit[21] 	0.29780237407764
scalar tree_4_3_u04_r14_network.node[21].content_store 	hits[21] 	3713
scalar tree_4_3_u04_r14_network.node[21].content_store 	misses[21] 	8755
scalar tree_4_3_u04_r14_network.node[21].content_store 	decision_yes[21] 	21
scalar tree_4_3_u04_r14_network.node[21].content_store 	decision_no[21] 	8734
scalar tree_4_3_u04_r14_network.node[21].content_store 	decision_ratio[21] 	0.0023986293546545
scalar tree_4_3_u04_r14_network.node[22].core_layer 	interests[22] 	12747
scalar tree_4_3_u04_r14_network.node[22].core_layer 	data[22] 	8910
scalar tree_4_3_u04_r14_network.node[22].content_store 	p_hit[22] 	0.30093355299286
scalar tree_4_3_u04_r14_network.node[22].content_store 	hits[22] 	3836
scalar tree_4_3_u04_r14_network.node[22].content_store 	misses[22] 	8911
scalar tree_4_3_u04_r14_network.node[22].content_store 	decision_yes[22] 	29
scalar tree_4_3_u04_r14_network.node[22].content_store 	decision_no[22] 	8881
scalar tree_4_3_u04_r14_network.node[22].content_store 	decision_ratio[22] 	0.0032547699214366
scalar tree_4_3_u04_r14_network.node[23].core_layer 	interests[23] 	13025
scalar tree_4_3_u04_r14_network.node[23].core_layer 	data[23] 	8763
scalar tree_4_3_u04_r14_network.node[23].content_store 	p_hit[23] 	0.32721689059501
scalar tree_4_3_u04_r14_network.node[23].content_store 	hits[23] 	4262
scalar tree_4_3_u04_r14_network.node[23].content_store 	misses[23] 	8763
scalar tree_4_3_u04_r14_network.node[23].content_store 	decision_yes[23] 	35
scalar tree_4_3_u04_r14_network.node[23].content_store 	decision_no[23] 	8728
scalar tree_4_3_u04_r14_network.node[23].content_store 	decision_ratio[23] 	0.0039940659591464
scalar tree_4_3_u04_r14_network.node[24].core_layer 	interests[24] 	12510
scalar tree_4_3_u04_r14_network.node[24].core_layer 	data[24] 	8851
scalar tree_4_3_u04_r14_network.node[24].content_store 	p_hit[24] 	0.29248601119105
scalar tree_4_3_u04_r14_network.node[24].content_store 	hits[24] 	3659
scalar tree_4_3_u04_r14_network.node[24].content_store 	misses[24] 	8851
scalar tree_4_3_u04_r14_network.node[24].content_store 	decision_yes[24] 	32
scalar tree_4_3_u04_r14_network.node[24].content_store 	decision_no[24] 	8819
scalar tree_4_3_u04_r14_network.node[24].content_store 	decision_ratio[24] 	0.0036154106880578
scalar tree_4_3_u04_r14_network.node[25].core_layer 	interests[25] 	12553
scalar tree_4_3_u04_r14_network.node[25].core_layer 	data[25] 	8916
scalar tree_4_3_u04_r14_network.node[25].content_store 	p_hit[25] 	0.2897315382777
scalar tree_4_3_u04_r14_network.node[25].content_store 	hits[25] 	3637
scalar tree_4_3_u04_r14_network.node[25].content_store 	misses[25] 	8916
scalar tree_4_3_u04_r14_network.node[25].content_store 	decision_yes[25] 	38
scalar tree_4_3_u04_r14_network.node[25].content_store 	decision_no[25] 	8878
scalar tree_4_3_u04_r14_network.node[25].content_store 	decision_ratio[25] 	0.0042620008972633
scalar tree_4_3_u04_r14_network.node[26].core_layer 	interests[26] 	12279
scalar tree_4_3_u04_r14_network.node[26].core_layer 	data[26] 	8682
scalar tree_4_3_u04_r14_network.node[26].content_store 	p_hit[26] 	0.29293916442707
scalar tree_4_3_u04_r14_network.node[26].content_store 	hits[26] 	3597
scalar tree_4_3_u04_r14_network.node[26].content_store 	misses[26] 	8682
scalar tree_4_3_u04_r14_network.node[26].content_store 	decision_yes[26] 	21
scalar tree_4_3_u04_r14_network.node[26].content_store 	decision_no[26] 	8661
scalar tree_4_3_u04_r14_network.node[26].content_store 	decision_ratio[26] 	0.002418797512094
scalar tree_4_3_u04_r14_network.node[27].core_layer 	interests[27] 	12250
scalar tree_4_3_u04_r14_network.node[27].core_layer 	data[27] 	8687
scalar tree_4_3_u04_r14_network.node[27].content_store 	p_hit[27] 	0.29085714285714
scalar tree_4_3_u04_r14_network.node[27].content_store 	hits[27] 	3563
scalar tree_4_3_u04_r14_network.node[27].content_store 	misses[27] 	8687
scalar tree_4_3_u04_r14_network.node[27].content_store 	decision_yes[27] 	27
scalar tree_4_3_u04_r14_network.node[27].content_store 	decision_no[27] 	8660
scalar tree_4_3_u04_r14_network.node[27].content_store 	decision_ratio[27] 	0.0031080925520893
scalar tree_4_3_u04_r14_network.node[28].core_layer 	interests[28] 	12903
scalar tree_4_3_u04_r14_network.node[28].core_layer 	data[28] 	8828
scalar tree_4_3_u04_r14_network.node[28].content_store 	p_hit[28] 	0.31589552817174
scalar tree_4_3_u04_r14_network.node[28].content_store 	hits[28] 	4076
scalar tree_4_3_u04_r14_network.node[28].content_store 	misses[28] 	8827
scalar tree_4_3_u04_r14_network.node[28].content_store 	decision_yes[28] 	31
scalar tree_4_3_u04_r14_network.node[28].content_store 	decision_no[28] 	8797
scalar tree_4_3_u04_r14_network.node[28].content_store 	decision_ratio[28] 	0.0035115541458994
scalar tree_4_3_u04_r14_network.node[29].core_layer 	interests[29] 	12491
scalar tree_4_3_u04_r14_network.node[29].core_layer 	data[29] 	8733
scalar tree_4_3_u04_r14_network.node[29].content_store 	p_hit[29] 	0.30077655912257
scalar tree_4_3_u04_r14_network.node[29].content_store 	hits[29] 	3757
scalar tree_4_3_u04_r14_network.node[29].content_store 	misses[29] 	8734
scalar tree_4_3_u04_r14_network.node[29].content_store 	decision_yes[29] 	21
scalar tree_4_3_u04_r14_network.node[29].content_store 	decision_no[29] 	8712
scalar tree_4_3_u04_r14_network.node[29].content_store 	decision_ratio[29] 	0.0024046719340433
scalar tree_4_3_u04_r14_network.node[30].core_layer 	interests[30] 	12607
scalar tree_4_3_u04_r14_network.node[30].core_layer 	data[30] 	8829
scalar tree_4_3_u04_r14_network.node[30].content_store 	p_hit[30] 	0.29967478385024
scalar tree_4_3_u04_r14_network.node[30].content_store 	hits[30] 	3778
scalar tree_4_3_u04_r14_network.node[30].content_store 	misses[30] 	8829
scalar tree_4_3_u04_r14_network.node[30].content_store 	decision_yes[30] 	25
scalar tree_4_3_u04_r14_network.node[30].content_store 	decision_no[30] 	8804
scalar tree_4_3_u04_r14_network.node[30].content_store 	decision_ratio[30] 	0.0028315777551252
scalar tree_4_3_u04_r14_network.node[31].core_layer 	interests[31] 	12387
scalar tree_4_3_u04_r14_network.node[31].core_layer 	data[31] 	8672
scalar tree_4_3_u04_r14_network.node[31].content_store 	p_hit[31] 	0.29991119722289
scalar tree_4_3_u04_r14_network.node[31].content_store 	hits[31] 	3715
scalar tree_4_3_u04_r14_network.node[31].content_store 	misses[31] 	8672
scalar tree_4_3_u04_r14_network.node[31].content_store 	decision_yes[31] 	28
scalar tree_4_3_u04_r14_network.node[31].content_store 	decision_no[31] 	8644
scalar tree_4_3_u04_r14_network.node[31].content_store 	decision_ratio[31] 	0.0032287822878229
scalar tree_4_3_u04_r14_network.node[32].core_layer 	interests[32] 	12504
scalar tree_4_3_u04_r14_network.node[32].core_layer 	data[32] 	8784
scalar tree_4_3_u04_r14_network.node[32].content_store 	p_hit[32] 	0.29758477287268
scalar tree_4_3_u04_r14_network.node[32].content_store 	hits[32] 	3721
scalar tree_4_3_u04_r14_network.node[32].content_store 	misses[32] 	8783
scalar tree_4_3_u04_r14_network.node[32].content_store 	decision_yes[32] 	28
scalar tree_4_3_u04_r14_network.node[32].content_store 	decision_no[32] 	8756
scalar tree_4_3_u04_r14_network.node[32].content_store 	decision_ratio[32] 	0.0031876138433515
scalar tree_4_3_u04_r14_network.node[33].core_layer 	interests[33] 	12362
scalar tree_4_3_u04_r14_network.node[33].core_layer 	data[33] 	8639
scalar tree_4_3_u04_r14_network.node[33].content_store 	p_hit[33] 	0.30116486005501
scalar tree_4_3_u04_r14_network.node[33].content_store 	hits[33] 	3723
scalar tree_4_3_u04_r14_network.node[33].content_store 	misses[33] 	8639
scalar tree_4_3_u04_r14_network.node[33].content_store 	decision_yes[33] 	32
scalar tree_4_3_u04_r14_network.node[33].content_store 	decision_no[33] 	8607
scalar tree_4_3_u04_r14_network.node[33].content_store 	decision_ratio[33] 	0.0037041324227341
scalar tree_4_3_u04_r14_network.node[34].core_layer 	interests[34] 	12436
scalar tree_4_3_u04_r14_network.node[34].core_layer 	data[34] 	8631
scalar tree_4_3_u04_r14_network.node[34].content_store 	p_hit[34] 	0.30588613702155
scalar tree_4_3_u04_r14_network.node[34].content_store 	hits[34] 	3804
scalar tree_4_3_u04_r14_network.node[34].content_store 	misses[34] 	8632
scalar tree_4_3_u04_r14_network.node[34].content_store 	decision_yes[34] 	33
scalar tree_4_3_u04_r14_network.node[34].content_store 	decision_no[34] 	8598
scalar tree_4_3_u04_r14_network.node[34].content_store 	decision_ratio[34] 	0.0038234271810914
scalar tree_4_3_u04_r14_network.node[35].core_layer 	interests[35] 	12474
scalar tree_4_3_u04_r14_network.node[35].core_layer 	data[35] 	8873
scalar tree_4_3_u04_r14_network.node[35].content_store 	p_hit[35] 	0.28860028860029
scalar tree_4_3_u04_r14_network.node[35].content_store 	hits[35] 	3600
scalar tree_4_3_u04_r14_network.node[35].content_store 	misses[35] 	8874
scalar tree_4_3_u04_r14_network.node[35].content_store 	decision_yes[35] 	33
scalar tree_4_3_u04_r14_network.node[35].content_store 	decision_no[35] 	8840
scalar tree_4_3_u04_r14_network.node[35].content_store 	decision_ratio[35] 	0.0037191479770089
scalar tree_4_3_u04_r14_network.node[36].core_layer 	interests[36] 	12441
scalar tree_4_3_u04_r14_network.node[36].core_layer 	data[36] 	8762
scalar tree_4_3_u04_r14_network.node[36].content_store 	p_hit[36] 	0.2957157784744
scalar tree_4_3_u04_r14_network.node[36].content_store 	hits[36] 	3679
scalar tree_4_3_u04_r14_network.node[36].content_store 	misses[36] 	8762
scalar tree_4_3_u04_r14_network.node[36].content_store 	decision_yes[36] 	32
scalar tree_4_3_u04_r14_network.node[36].content_store 	decision_no[36] 	8730
scalar tree_4_3_u04_r14_network.node[36].content_store 	decision_ratio[36] 	0.0036521342159324
scalar tree_4_3_u04_r14_network.node[37].core_layer 	interests[37] 	12341
scalar tree_4_3_u04_r14_network.node[37].core_layer 	data[37] 	8679
scalar tree_4_3_u04_r14_network.node[37].content_store 	p_hit[37] 	0.29673446236123
scalar tree_4_3_u04_r14_network.node[37].content_store 	hits[37] 	3662
scalar tree_4_3_u04_r14_network.node[37].content_store 	misses[37] 	8679
scalar tree_4_3_u04_r14_network.node[37].content_store 	decision_yes[37] 	24
scalar tree_4_3_u04_r14_network.node[37].content_store 	decision_no[37] 	8655
scalar tree_4_3_u04_r14_network.node[37].content_store 	decision_ratio[37] 	0.0027652955409609
scalar tree_4_3_u04_r14_network.node[38].core_layer 	interests[38] 	12362
scalar tree_4_3_u04_r14_network.node[38].core_layer 	data[38] 	8760
scalar tree_4_3_u04_r14_network.node[38].content_store 	p_hit[38] 	0.29145769292995
scalar tree_4_3_u04_r14_network.node[38].content_store 	hits[38] 	3603
scalar tree_4_3_u04_r14_network.node[38].content_store 	misses[38] 	8759
scalar tree_4_3_u04_r14_network.node[38].content_store 	decision_yes[38] 	37
scalar tree_4_3_u04_r14_network.node[38].content_store 	decision_no[38] 	8723
scalar tree_4_3_u04_r14_network.node[38].content_store 	decision_ratio[38] 	0.0042237442922374
scalar tree_4_3_u04_r14_network.node[39].core_layer 	interests[39] 	12331
scalar tree_4_3_u04_r14_network.node[39].core_layer 	data[39] 	8639
scalar tree_4_3_u04_r14_network.node[39].content_store 	p_hit[39] 	0.29940799610737
scalar tree_4_3_u04_r14_network.node[39].content_store 	hits[39] 	3692
scalar tree_4_3_u04_r14_network.node[39].content_store 	misses[39] 	8639
scalar tree_4_3_u04_r14_network.node[39].content_store 	decision_yes[39] 	25
scalar tree_4_3_u04_r14_network.node[39].content_store 	decision_no[39] 	8614
scalar tree_4_3_u04_r14_network.node[39].content_store 	decision_ratio[39] 	0.002893853455261
scalar tree_4_3_u04_r14_network.client[13] 	hdistance[13] 	2.6708787097847
scalar tree_4_3_u04_r14_network.client[13] 	downloads[13] 	12029
scalar tree_4_3_u04_r14_network.client[13] 	avg_time[13] 	0.004194526896
scalar tree_4_3_u04_r14_network.client[14] 	hdistance[14] 	2.5701462765957
scalar tree_4_3_u04_r14_network.client[14] 	downloads[14] 	12032
scalar tree_4_3_u04_r14_network.client[14] 	avg_time[14] 	0.004011133965
scalar tree_4_3_u04_r14_network.client[15] 	hdistance[15] 	2.5478956228956
scalar tree_4_3_u04_r14_network.client[15] 	downloads[15] 	11880
scalar tree_4_3_u04_r14_network.client[15] 	avg_time[15] 	0.004009424624
scalar tree_4_3_u04_r14_network.client[16] 	hdistance[16] 	2.5738435660219
scalar tree_4_3_u04_r14_network.client[16] 	downloads[16] 	11890
scalar tree_4_3_u04_r14_network.client[16] 	avg_time[16] 	0.00403027458
scalar tree_4_3_u04_r14_network.client[17] 	hdistance[17] 	2.6331435270474
scalar tree_4_3_u04_r14_network.client[17] 	downloads[17] 	11942
scalar tree_4_3_u04_r14_network.client[17] 	avg_time[17] 	0.004126441523
scalar tree_4_3_u04_r14_network.client[18] 	hdistance[18] 	2.6382924552321
scalar tree_4_3_u04_r14_network.client[18] 	downloads[18] 	11783
scalar tree_4_3_u04_r14_network.client[18] 	avg_time[18] 	0.004134597807
scalar tree_4_3_u04_r14_network.client[19] 	hdistance[19] 	2.6339025406081
scalar tree_4_3_u04_r14_network.client[19] 	downloads[19] 	12005
scalar tree_4_3_u04_r14_network.client[19] 	avg_time[19] 	0.004157931206
scalar tree_4_3_u04_r14_network.client[20] 	hdistance[20] 	2.5543140384777
scalar tree_4_3_u04_r14_network.client[20] 	downloads[20] 	11903
scalar tree_4_3_u04_r14_network.client[20] 	avg_time[20] 	0.004020664095
scalar tree_4_3_u04_r14_network.client[21] 	hdistance[21] 	2.6251366120219
scalar tree_4_3_u04_r14_network.client[21] 	downloads[21] 	11895
scalar tree_4_3_u04_r14_network.client[21] 	avg_time[21] 	0.004140224018
scalar tree_4_3_u04_r14_network.client[22] 	hdistance[22] 	2.6298306199638
scalar tree_4_3_u04_r14_network.client[22] 	downloads[22] 	12162
scalar tree_4_3_u04_r14_network.client[22] 	avg_time[22] 	0.004142549544
scalar tree_4_3_u04_r14_network.client[23] 	hdistance[23] 	2.5373703857321
scalar tree_4_3_u04_r14_network.client[23] 	downloads[23] 	12055
scalar tree_4_3_u04_r14_network.client[23] 	avg_time[23] 	0.003984567697
scalar tree_4_3_u04_r14_network.client[24] 	hdistance[24] 	2.6300924768808
scalar tree_4_3_u04_r14_network.client[24] 	downloads[24] 	12003
scalar tree_4_3_u04_r14_network.client[24] 	avg_time[24] 	0.004156124626
scalar tree_4_3_u04_r14_network.client[25] 	hdistance[25] 	2.6686965108624
scalar tree_4_3_u04_r14_network.client[25] 	downloads[25] 	12152
scalar tree_4_3_u04_r14_network.client[25] 	avg_time[25] 	0.004142195776
scalar tree_4_3_u04_r14_network.client[26] 	hdistance[26] 	2.6536242789064
scalar tree_4_3_u04_r14_network.client[26] 	downloads[26] 	11961
scalar tree_4_3_u04_r14_network.client[26] 	avg_time[26] 	0.004118214555
scalar tree_4_3_u04_r14_network.client[27] 	hdistance[27] 	2.6555200806587
scalar tree_4_3_u04_r14_network.client[27] 	downloads[27] 	11902
scalar tree_4_3_u04_r14_network.client[27] 	avg_time[27] 	0.004124345892
scalar tree_4_3_u04_r14_network.client[28] 	hdistance[28] 	2.5587940537832
scalar tree_4_3_u04_r14_network.client[28] 	downloads[28] 	11974
scalar tree_4_3_u04_r14_network.client[28] 	avg_time[28] 	0.004027222673
scalar tree_4_3_u04_r14_network.client[29] 	hdistance[29] 	2.60357439734
scalar tree_4_3_u04_r14_network.client[29] 	downloads[29] 	12030
scalar tree_4_3_u04_r14_network.client[29] 	avg_time[29] 	0.004096782444
scalar tree_4_3_u04_r14_network.client[30] 	hdistance[30] 	2.6109282422646
scalar tree_4_3_u04_r14_network.client[30] 	downloads[30] 	12152
scalar tree_4_3_u04_r14_network.client[30] 	avg_time[30] 	0.004111418944
scalar tree_4_3_u04_r14_network.client[31] 	hdistance[31] 	2.6332600980226
scalar tree_4_3_u04_r14_network.client[31] 	downloads[31] 	11834
scalar tree_4_3_u04_r14_network.client[31] 	avg_time[31] 	0.004154805231
scalar tree_4_3_u04_r14_network.client[32] 	hdistance[32] 	2.6235205867645
scalar tree_4_3_u04_r14_network.client[32] 	downloads[32] 	11998
scalar tree_4_3_u04_r14_network.client[32] 	avg_time[32] 	0.004139553794
scalar tree_4_3_u04_r14_network.client[33] 	hdistance[33] 	2.6114526315789
scalar tree_4_3_u04_r14_network.client[33] 	downloads[33] 	11875
scalar tree_4_3_u04_r14_network.client[33] 	avg_time[33] 	0.004119744429
scalar tree_4_3_u04_r14_network.client[34] 	hdistance[34] 	2.6395319471336
scalar tree_4_3_u04_r14_network.client[34] 	downloads[34] 	11879
scalar tree_4_3_u04_r14_network.client[34] 	avg_time[34] 	0.004133400274
scalar tree_4_3_u04_r14_network.client[35] 	hdistance[35] 	2.6588284171167
scalar tree_4_3_u04_r14_network.client[35] 	downloads[35] 	12035
scalar tree_4_3_u04_r14_network.client[35] 	avg_time[35] 	0.004171941416
scalar tree_4_3_u04_r14_network.client[36] 	hdistance[36] 	2.6498667110963
scalar tree_4_3_u04_r14_network.client[36] 	downloads[36] 	12004
scalar tree_4_3_u04_r14_network.client[36] 	avg_time[36] 	0.00414744781
scalar tree_4_3_u04_r14_network.client[37] 	hdistance[37] 	2.6240639041438
scalar tree_4_3_u04_r14_network.client[37] 	downloads[37] 	12018
scalar tree_4_3_u04_r14_network.client[37] 	avg_time[37] 	0.004108315581
scalar tree_4_3_u04_r14_network.client[38] 	hdistance[38] 	2.6490276270762
scalar tree_4_3_u04_r14_network.client[38] 	downloads[38] 	11981
scalar tree_4_3_u04_r14_network.client[38] 	avg_time[38] 	0.004146729651
scalar tree_4_3_u04_r14_network.client[39] 	hdistance[39] 	2.6216238886093
scalar tree_4_3_u04_r14_network.client[39] 	downloads[39] 	11922
scalar tree_4_3_u04_r14_network.client[39] 	avg_time[39] 	0.004105899808
