version 2
run General-262-20160901-02:48:27-8710
attr a 0.9
attr cd ffc0.25
attr configname General
attr cr lru
attr datetime 20160901-02:48:27
attr experiment General
attr fsize 1
attr inifile hw5115/scenario_Y/omnetp.ini
attr iterationvars "$name=tree_4_3, $un=04, $rep=8, $cd=ffc0.25, $cr=lru, $fsize=1, $a=0.9, $sl=nrr, $ttl=1000, $variance=0.05"
attr iterationvars2 "$name=tree_4_3, $un=04, $rep=8, $cd=ffc0.25, $cr=lru, $fsize=1, $a=0.9, $sl=nrr, $ttl=1000, $variance=0.05, $repetition=0"
attr measurement "$name=tree_4_3, $un=04, $rep=8, $cd=ffc0.25, $cr=lru, $fsize=1, $a=0.9, $sl=nrr, $ttl=1000, $variance=0.05"
attr name tree_4_3
attr network networks.${name}_u${un}_r${rep}_network
attr processid 8710
attr rep 8
attr repetition 0
attr replication #0
attr resultdir results
attr runnumber 262
attr seedset 8
attr sl nrr
attr ttl 1000
attr un 04
attr variance 0.05

scalar . 	a 	0.9
scalar . 	fsize 	1
scalar . 	rep 	8
scalar . 	ttl 	1000
scalar . 	un 	04
scalar . 	variance 	0.05
scalar tree_4_3_u04_r8_network.content_distribution 	repo-0 	0
scalar tree_4_3_u04_r8_network.content_distribution 	client-0 	13
scalar tree_4_3_u04_r8_network.content_distribution 	client-1 	14
scalar tree_4_3_u04_r8_network.content_distribution 	client-2 	15
scalar tree_4_3_u04_r8_network.content_distribution 	client-3 	16
scalar tree_4_3_u04_r8_network.content_distribution 	client-4 	17
scalar tree_4_3_u04_r8_network.content_distribution 	client-5 	18
scalar tree_4_3_u04_r8_network.content_distribution 	client-6 	19
scalar tree_4_3_u04_r8_network.content_distribution 	client-7 	20
scalar tree_4_3_u04_r8_network.content_distribution 	client-8 	21
scalar tree_4_3_u04_r8_network.content_distribution 	client-9 	22
scalar tree_4_3_u04_r8_network.content_distribution 	client-10 	23
scalar tree_4_3_u04_r8_network.content_distribution 	client-11 	24
scalar tree_4_3_u04_r8_network.content_distribution 	client-12 	25
scalar tree_4_3_u04_r8_network.content_distribution 	client-13 	26
scalar tree_4_3_u04_r8_network.content_distribution 	client-14 	27
scalar tree_4_3_u04_r8_network.content_distribution 	client-15 	28
scalar tree_4_3_u04_r8_network.content_distribution 	client-16 	29
scalar tree_4_3_u04_r8_network.content_distribution 	client-17 	30
scalar tree_4_3_u04_r8_network.content_distribution 	client-18 	31
scalar tree_4_3_u04_r8_network.content_distribution 	client-19 	32
scalar tree_4_3_u04_r8_network.content_distribution 	client-20 	33
scalar tree_4_3_u04_r8_network.content_distribution 	client-21 	34
scalar tree_4_3_u04_r8_network.content_distribution 	client-22 	35
scalar tree_4_3_u04_r8_network.content_distribution 	client-23 	36
scalar tree_4_3_u04_r8_network.content_distribution 	client-24 	37
scalar tree_4_3_u04_r8_network.content_distribution 	client-25 	38
scalar tree_4_3_u04_r8_network.content_distribution 	client-26 	39
scalar tree_4_3_u04_r8_network.content_distribution 	repo-0_card 	100000
scalar tree_4_3_u04_r8_network.content_distribution 	repo-0_price 	0
scalar tree_4_3_u04_r8_network.statistics 	stabilization_time 	1748.1
scalar tree_4_3_u04_r8_network.statistics 	p_hit 	0.23163331057144
scalar tree_4_3_u04_r8_network.statistics 	interests 	24797.175
scalar tree_4_3_u04_r8_network.statistics 	data 	16677.5
scalar tree_4_3_u04_r8_network.statistics 	hdistance 	2.6265247775918
scalar tree_4_3_u04_r8_network.statistics 	avg_time 	0.00410792293
scalar tree_4_3_u04_r8_network.statistics 	downloads 	324782
scalar tree_4_3_u04_r8_network.statistics 	total_cost 	0
scalar tree_4_3_u04_r8_network.statistics 	total_replicas 	100000
scalar tree_4_3_u04_r8_network.statistics 	inner_hit 	0.4274559550714
scalar tree_4_3_u04_r8_network.node[0].core_layer 	interests[0] 	189594
scalar tree_4_3_u04_r8_network.node[0].core_layer 	repo_load[0] 	185952
scalar tree_4_3_u04_r8_network.node[0].core_layer 	data[0] 	0
scalar tree_4_3_u04_r8_network.node[0].core_layer 	repo_int[0] 	185952
scalar tree_4_3_u04_r8_network.node[0].content_store 	p_hit[0] 	0.019209468654071
scalar tree_4_3_u04_r8_network.node[0].content_store 	hits[0] 	3642
scalar tree_4_3_u04_r8_network.node[0].content_store 	misses[0] 	185952
scalar tree_4_3_u04_r8_network.node[0].content_store 	decision_yes[0] 	194
scalar tree_4_3_u04_r8_network.node[0].content_store 	decision_no[0] 	185758
scalar tree_4_3_u04_r8_network.node[0].content_store 	decision_ratio[0] 	0.001043279986233
scalar tree_4_3_u04_r8_network.node[1].core_layer 	interests[1] 	98555
scalar tree_4_3_u04_r8_network.node[1].core_layer 	data[1] 	95669
scalar tree_4_3_u04_r8_network.node[1].content_store 	p_hit[1] 	0.029262848155852
scalar tree_4_3_u04_r8_network.node[1].content_store 	hits[1] 	2884
scalar tree_4_3_u04_r8_network.node[1].content_store 	misses[1] 	95671
scalar tree_4_3_u04_r8_network.node[1].content_store 	decision_yes[1] 	126
scalar tree_4_3_u04_r8_network.node[1].content_store 	decision_no[1] 	95543
scalar tree_4_3_u04_r8_network.node[1].content_store 	decision_ratio[1] 	0.0013170410477793
scalar tree_4_3_u04_r8_network.node[2].core_layer 	interests[2] 	41934
scalar tree_4_3_u04_r8_network.node[2].core_layer 	data[2] 	39074
scalar tree_4_3_u04_r8_network.node[2].content_store 	p_hit[2] 	0.068202413316164
scalar tree_4_3_u04_r8_network.node[2].content_store 	hits[2] 	2860
scalar tree_4_3_u04_r8_network.node[2].content_store 	misses[2] 	39074
scalar tree_4_3_u04_r8_network.node[2].content_store 	decision_yes[2] 	82
scalar tree_4_3_u04_r8_network.node[2].content_store 	decision_no[2] 	38992
scalar tree_4_3_u04_r8_network.node[2].content_store 	decision_ratio[2] 	0.002098582177407
scalar tree_4_3_u04_r8_network.node[3].core_layer 	interests[3] 	71040
scalar tree_4_3_u04_r8_network.node[3].core_layer 	data[3] 	68308
scalar tree_4_3_u04_r8_network.node[3].content_store 	p_hit[3] 	0.038457207207207
scalar tree_4_3_u04_r8_network.node[3].content_store 	hits[3] 	2732
scalar tree_4_3_u04_r8_network.node[3].content_store 	misses[3] 	68308
scalar tree_4_3_u04_r8_network.node[3].content_store 	decision_yes[3] 	93
scalar tree_4_3_u04_r8_network.node[3].content_store 	decision_no[3] 	68215
scalar tree_4_3_u04_r8_network.node[3].content_store 	decision_ratio[3] 	0.0013614803536921
scalar tree_4_3_u04_r8_network.node[4].core_layer 	interests[4] 	35012
scalar tree_4_3_u04_r8_network.node[4].core_layer 	data[4] 	32478
scalar tree_4_3_u04_r8_network.node[4].content_store 	p_hit[4] 	0.072375185650634
scalar tree_4_3_u04_r8_network.node[4].content_store 	hits[4] 	2534
scalar tree_4_3_u04_r8_network.node[4].content_store 	misses[4] 	32478
scalar tree_4_3_u04_r8_network.node[4].content_store 	decision_yes[4] 	64
scalar tree_4_3_u04_r8_network.node[4].content_store 	decision_no[4] 	32414
scalar tree_4_3_u04_r8_network.node[4].content_store 	decision_ratio[4] 	0.001970564689944
scalar tree_4_3_u04_r8_network.node[5].core_layer 	interests[5] 	20458
scalar tree_4_3_u04_r8_network.node[5].core_layer 	data[5] 	17454
scalar tree_4_3_u04_r8_network.node[5].content_store 	p_hit[5] 	0.146837423013
scalar tree_4_3_u04_r8_network.node[5].content_store 	hits[5] 	3004
scalar tree_4_3_u04_r8_network.node[5].content_store 	misses[5] 	17454
scalar tree_4_3_u04_r8_network.node[5].content_store 	decision_yes[5] 	51
scalar tree_4_3_u04_r8_network.node[5].content_store 	decision_no[5] 	17403
scalar tree_4_3_u04_r8_network.node[5].content_store 	decision_ratio[5] 	0.0029219663114472
scalar tree_4_3_u04_r8_network.node[6].core_layer 	interests[6] 	28503
scalar tree_4_3_u04_r8_network.node[6].core_layer 	data[6] 	25680
scalar tree_4_3_u04_r8_network.node[6].content_store 	p_hit[6] 	0.099007122057327
scalar tree_4_3_u04_r8_network.node[6].content_store 	hits[6] 	2822
scalar tree_4_3_u04_r8_network.node[6].content_store 	misses[6] 	25681
scalar tree_4_3_u04_r8_network.node[6].content_store 	decision_yes[6] 	72
scalar tree_4_3_u04_r8_network.node[6].content_store 	decision_no[6] 	25608
scalar tree_4_3_u04_r8_network.node[6].content_store 	decision_ratio[6] 	0.002803738317757
scalar tree_4_3_u04_r8_network.node[7].core_layer 	interests[7] 	36816
scalar tree_4_3_u04_r8_network.node[7].core_layer 	data[7] 	33371
scalar tree_4_3_u04_r8_network.node[7].content_store 	p_hit[7] 	0.093573446327684
scalar tree_4_3_u04_r8_network.node[7].content_store 	hits[7] 	3445
scalar tree_4_3_u04_r8_network.node[7].content_store 	misses[7] 	33371
scalar tree_4_3_u04_r8_network.node[7].content_store 	decision_yes[7] 	75
scalar tree_4_3_u04_r8_network.node[7].content_store 	decision_no[7] 	33296
scalar tree_4_3_u04_r8_network.node[7].content_store 	decision_ratio[7] 	0.0022474603697821
scalar tree_4_3_u04_r8_network.node[8].core_layer 	interests[8] 	27229
scalar tree_4_3_u04_r8_network.node[8].core_layer 	data[8] 	25197
scalar tree_4_3_u04_r8_network.node[8].content_store 	p_hit[8] 	0.074626317529105
scalar tree_4_3_u04_r8_network.node[8].content_store 	hits[8] 	2032
scalar tree_4_3_u04_r8_network.node[8].content_store 	misses[8] 	25197
scalar tree_4_3_u04_r8_network.node[8].content_store 	decision_yes[8] 	69
scalar tree_4_3_u04_r8_network.node[8].content_store 	decision_no[8] 	25128
scalar tree_4_3_u04_r8_network.node[8].content_store 	decision_ratio[8] 	0.0027384212406239
scalar tree_4_3_u04_r8_network.node[9].core_layer 	interests[9] 	20702
scalar tree_4_3_u04_r8_network.node[9].core_layer 	data[9] 	17760
scalar tree_4_3_u04_r8_network.node[9].content_store 	p_hit[9] 	0.14211187324896
scalar tree_4_3_u04_r8_network.node[9].content_store 	hits[9] 	2942
scalar tree_4_3_u04_r8_network.node[9].content_store 	misses[9] 	17760
scalar tree_4_3_u04_r8_network.node[9].content_store 	decision_yes[9] 	45
scalar tree_4_3_u04_r8_network.node[9].content_store 	decision_no[9] 	17715
scalar tree_4_3_u04_r8_network.node[9].content_store 	decision_ratio[9] 	0.0025337837837838
scalar tree_4_3_u04_r8_network.node[10].core_layer 	interests[10] 	34914
scalar tree_4_3_u04_r8_network.node[10].core_layer 	data[10] 	32410
scalar tree_4_3_u04_r8_network.node[10].content_store 	p_hit[10] 	0.071719081170877
scalar tree_4_3_u04_r8_network.node[10].content_store 	hits[10] 	2504
scalar tree_4_3_u04_r8_network.node[10].content_store 	misses[10] 	32410
scalar tree_4_3_u04_r8_network.node[10].content_store 	decision_yes[10] 	65
scalar tree_4_3_u04_r8_network.node[10].content_store 	decision_no[10] 	32345
scalar tree_4_3_u04_r8_network.node[10].content_store 	decision_ratio[10] 	0.002005553841407
scalar tree_4_3_u04_r8_network.node[11].core_layer 	interests[11] 	35245
scalar tree_4_3_u04_r8_network.node[11].core_layer 	data[11] 	32646
scalar tree_4_3_u04_r8_network.node[11].content_store 	p_hit[11] 	0.073740956163995
scalar tree_4_3_u04_r8_network.node[11].content_store 	hits[11] 	2599
scalar tree_4_3_u04_r8_network.node[11].content_store 	misses[11] 	32646
scalar tree_4_3_u04_r8_network.node[11].content_store 	decision_yes[11] 	69
scalar tree_4_3_u04_r8_network.node[11].content_store 	decision_no[11] 	32577
scalar tree_4_3_u04_r8_network.node[11].content_store 	decision_ratio[11] 	0.0021135820621209
scalar tree_4_3_u04_r8_network.node[12].core_layer 	interests[12] 	12321
scalar tree_4_3_u04_r8_network.node[12].core_layer 	data[12] 	9310
scalar tree_4_3_u04_r8_network.node[12].content_store 	p_hit[12] 	0.24437951464978
scalar tree_4_3_u04_r8_network.node[12].content_store 	hits[12] 	3011
scalar tree_4_3_u04_r8_network.node[12].content_store 	misses[12] 	9310
scalar tree_4_3_u04_r8_network.node[12].content_store 	decision_yes[12] 	45
scalar tree_4_3_u04_r8_network.node[12].content_store 	decision_no[12] 	9265
scalar tree_4_3_u04_r8_network.node[12].content_store 	decision_ratio[12] 	0.0048335123523093
scalar tree_4_3_u04_r8_network.node[13].core_layer 	interests[13] 	12530
scalar tree_4_3_u04_r8_network.node[13].core_layer 	data[13] 	8942
scalar tree_4_3_u04_r8_network.node[13].content_store 	p_hit[13] 	0.28635275339186
scalar tree_4_3_u04_r8_network.node[13].content_store 	hits[13] 	3588
scalar tree_4_3_u04_r8_network.node[13].content_store 	misses[13] 	8942
scalar tree_4_3_u04_r8_network.node[13].content_store 	decision_yes[13] 	41
scalar tree_4_3_u04_r8_network.node[13].content_store 	decision_no[13] 	8901
scalar tree_4_3_u04_r8_network.node[13].content_store 	decision_ratio[13] 	0.0045851040035786
scalar tree_4_3_u04_r8_network.node[14].core_layer 	interests[14] 	12443
scalar tree_4_3_u04_r8_network.node[14].core_layer 	data[14] 	8790
scalar tree_4_3_u04_r8_network.node[14].content_store 	p_hit[14] 	0.29349835248734
scalar tree_4_3_u04_r8_network.node[14].content_store 	hits[14] 	3652
scalar tree_4_3_u04_r8_network.node[14].content_store 	misses[14] 	8791
scalar tree_4_3_u04_r8_network.node[14].content_store 	decision_yes[14] 	24
scalar tree_4_3_u04_r8_network.node[14].content_store 	decision_no[14] 	8766
scalar tree_4_3_u04_r8_network.node[14].content_store 	decision_ratio[14] 	0.0027303754266212
scalar tree_4_3_u04_r8_network.node[15].core_layer 	interests[15] 	13066
scalar tree_4_3_u04_r8_network.node[15].core_layer 	data[15] 	8810
scalar tree_4_3_u04_r8_network.node[15].content_store 	p_hit[15] 	0.32573090463799
scalar tree_4_3_u04_r8_network.node[15].content_store 	hits[15] 	4256
scalar tree_4_3_u04_r8_network.node[15].content_store 	misses[15] 	8810
scalar tree_4_3_u04_r8_network.node[15].content_store 	decision_yes[15] 	31
scalar tree_4_3_u04_r8_network.node[15].content_store 	decision_no[15] 	8779
scalar tree_4_3_u04_r8_network.node[15].content_store 	decision_ratio[15] 	0.0035187287173666
scalar tree_4_3_u04_r8_network.node[16].core_layer 	interests[16] 	13014
scalar tree_4_3_u04_r8_network.node[16].core_layer 	data[16] 	8892
scalar tree_4_3_u04_r8_network.node[16].content_store 	p_hit[16] 	0.31673582295989
scalar tree_4_3_u04_r8_network.node[16].content_store 	hits[16] 	4122
scalar tree_4_3_u04_r8_network.node[16].content_store 	misses[16] 	8892
scalar tree_4_3_u04_r8_network.node[16].content_store 	decision_yes[16] 	26
scalar tree_4_3_u04_r8_network.node[16].content_store 	decision_no[16] 	8866
scalar tree_4_3_u04_r8_network.node[16].content_store 	decision_ratio[16] 	0.0029239766081871
scalar tree_4_3_u04_r8_network.node[17].core_layer 	interests[17] 	12345
scalar tree_4_3_u04_r8_network.node[17].core_layer 	data[17] 	8652
scalar tree_4_3_u04_r8_network.node[17].content_store 	p_hit[17] 	0.29914945321993
scalar tree_4_3_u04_r8_network.node[17].content_store 	hits[17] 	3693
scalar tree_4_3_u04_r8_network.node[17].content_store 	misses[17] 	8652
scalar tree_4_3_u04_r8_network.node[17].content_store 	decision_yes[17] 	30
scalar tree_4_3_u04_r8_network.node[17].content_store 	decision_no[17] 	8622
scalar tree_4_3_u04_r8_network.node[17].content_store 	decision_ratio[17] 	0.0034674063800277
scalar tree_4_3_u04_r8_network.node[18].core_layer 	interests[18] 	12263
scalar tree_4_3_u04_r8_network.node[18].core_layer 	data[18] 	8750
scalar tree_4_3_u04_r8_network.node[18].content_store 	p_hit[18] 	0.28647149963304
scalar tree_4_3_u04_r8_network.node[18].content_store 	hits[18] 	3513
scalar tree_4_3_u04_r8_network.node[18].content_store 	misses[18] 	8750
scalar tree_4_3_u04_r8_network.node[18].content_store 	decision_yes[18] 	23
scalar tree_4_3_u04_r8_network.node[18].content_store 	decision_no[18] 	8727
scalar tree_4_3_u04_r8_network.node[18].content_store 	decision_ratio[18] 	0.0026285714285714
scalar tree_4_3_u04_r8_network.node[19].core_layer 	interests[19] 	12542
scalar tree_4_3_u04_r8_network.node[19].core_layer 	data[19] 	8844
scalar tree_4_3_u04_r8_network.node[19].content_store 	p_hit[19] 	0.29484930633073
scalar tree_4_3_u04_r8_network.node[19].content_store 	hits[19] 	3698
scalar tree_4_3_u04_r8_network.node[19].content_store 	misses[19] 	8844
scalar tree_4_3_u04_r8_network.node[19].content_store 	decision_yes[19] 	32
scalar tree_4_3_u04_r8_network.node[19].content_store 	decision_no[19] 	8812
scalar tree_4_3_u04_r8_network.node[19].content_store 	decision_ratio[19] 	0.0036182722749887
scalar tree_4_3_u04_r8_network.node[20].core_layer 	interests[20] 	12554
scalar tree_4_3_u04_r8_network.node[20].core_layer 	data[20] 	8841
scalar tree_4_3_u04_r8_network.node[20].content_store 	p_hit[20] 	0.29576230683448
scalar tree_4_3_u04_r8_network.node[20].content_store 	hits[20] 	3713
scalar tree_4_3_u04_r8_network.node[20].content_store 	misses[20] 	8841
scalar tree_4_3_u04_r8_network.node[20].content_store 	decision_yes[20] 	30
scalar tree_4_3_u04_r8_network.node[20].content_store 	decision_no[20] 	8811
scalar tree_4_3_u04_r8_network.node[20].content_store 	decision_ratio[20] 	0.00339328130302
scalar tree_4_3_u04_r8_network.node[21].core_layer 	interests[21] 	12589
scalar tree_4_3_u04_r8_network.node[21].core_layer 	data[21] 	8915
scalar tree_4_3_u04_r8_network.node[21].content_store 	p_hit[21] 	0.2916832155056
scalar tree_4_3_u04_r8_network.node[21].content_store 	hits[21] 	3672
scalar tree_4_3_u04_r8_network.node[21].content_store 	misses[21] 	8917
scalar tree_4_3_u04_r8_network.node[21].content_store 	decision_yes[21] 	29
scalar tree_4_3_u04_r8_network.node[21].content_store 	decision_no[21] 	8886
scalar tree_4_3_u04_r8_network.node[21].content_store 	decision_ratio[21] 	0.0032529444756029
scalar tree_4_3_u04_r8_network.node[22].core_layer 	interests[22] 	12690
scalar tree_4_3_u04_r8_network.node[22].core_layer 	data[22] 	8745
scalar tree_4_3_u04_r8_network.node[22].content_store 	p_hit[22] 	0.31087470449173
scalar tree_4_3_u04_r8_network.node[22].content_store 	hits[22] 	3945
scalar tree_4_3_u04_r8_network.node[22].content_store 	misses[22] 	8745
scalar tree_4_3_u04_r8_network.node[22].content_store 	decision_yes[22] 	19
scalar tree_4_3_u04_r8_network.node[22].content_store 	decision_no[22] 	8726
scalar tree_4_3_u04_r8_network.node[22].content_store 	decision_ratio[22] 	0.0021726700971984
scalar tree_4_3_u04_r8_network.node[23].core_layer 	interests[23] 	12599
scalar tree_4_3_u04_r8_network.node[23].core_layer 	data[23] 	8867
scalar tree_4_3_u04_r8_network.node[23].content_store 	p_hit[23] 	0.29621398523692
scalar tree_4_3_u04_r8_network.node[23].content_store 	hits[23] 	3732
scalar tree_4_3_u04_r8_network.node[23].content_store 	misses[23] 	8867
scalar tree_4_3_u04_r8_network.node[23].content_store 	decision_yes[23] 	38
scalar tree_4_3_u04_r8_network.node[23].content_store 	decision_no[23] 	8829
scalar tree_4_3_u04_r8_network.node[23].content_store 	decision_ratio[23] 	0.0042855531746927
scalar tree_4_3_u04_r8_network.node[24].core_layer 	interests[24] 	12617
scalar tree_4_3_u04_r8_network.node[24].core_layer 	data[24] 	8777
scalar tree_4_3_u04_r8_network.node[24].content_store 	p_hit[24] 	0.30435127209321
scalar tree_4_3_u04_r8_network.node[24].content_store 	hits[24] 	3840
scalar tree_4_3_u04_r8_network.node[24].content_store 	misses[24] 	8777
scalar tree_4_3_u04_r8_network.node[24].content_store 	decision_yes[24] 	32
scalar tree_4_3_u04_r8_network.node[24].content_store 	decision_no[24] 	8745
scalar tree_4_3_u04_r8_network.node[24].content_store 	decision_ratio[24] 	0.0036458926740344
scalar tree_4_3_u04_r8_network.node[25].core_layer 	interests[25] 	12424
scalar tree_4_3_u04_r8_network.node[25].core_layer 	data[25] 	8725
scalar tree_4_3_u04_r8_network.node[25].content_store 	p_hit[25] 	0.29773019961365
scalar tree_4_3_u04_r8_network.node[25].content_store 	hits[25] 	3699
scalar tree_4_3_u04_r8_network.node[25].content_store 	misses[25] 	8725
scalar tree_4_3_u04_r8_network.node[25].content_store 	decision_yes[25] 	27
scalar tree_4_3_u04_r8_network.node[25].content_store 	decision_no[25] 	8698
scalar tree_4_3_u04_r8_network.node[25].content_store 	decision_ratio[25] 	0.0030945558739255
scalar tree_4_3_u04_r8_network.node[26].core_layer 	interests[26] 	12536
scalar tree_4_3_u04_r8_network.node[26].core_layer 	data[26] 	8920
scalar tree_4_3_u04_r8_network.node[26].content_store 	p_hit[26] 	0.28844926611359
scalar tree_4_3_u04_r8_network.node[26].content_store 	hits[26] 	3616
scalar tree_4_3_u04_r8_network.node[26].content_store 	misses[26] 	8920
scalar tree_4_3_u04_r8_network.node[26].content_store 	decision_yes[26] 	39
scalar tree_4_3_u04_r8_network.node[26].content_store 	decision_no[26] 	8881
scalar tree_4_3_u04_r8_network.node[26].content_store 	decision_ratio[26] 	0.004372197309417
scalar tree_4_3_u04_r8_network.node[27].core_layer 	interests[27] 	12454
scalar tree_4_3_u04_r8_network.node[27].core_layer 	data[27] 	8669
scalar tree_4_3_u04_r8_network.node[27].content_store 	p_hit[27] 	0.30391841978481
scalar tree_4_3_u04_r8_network.node[27].content_store 	hits[27] 	3785
scalar tree_4_3_u04_r8_network.node[27].content_store 	misses[27] 	8669
scalar tree_4_3_u04_r8_network.node[27].content_store 	decision_yes[27] 	25
scalar tree_4_3_u04_r8_network.node[27].content_store 	decision_no[27] 	8644
scalar tree_4_3_u04_r8_network.node[27].content_store 	decision_ratio[27] 	0.0028838389664321
scalar tree_4_3_u04_r8_network.node[28].core_layer 	interests[28] 	13044
scalar tree_4_3_u04_r8_network.node[28].core_layer 	data[28] 	8802
scalar tree_4_3_u04_r8_network.node[28].content_store 	p_hit[28] 	0.32520699172033
scalar tree_4_3_u04_r8_network.node[28].content_store 	hits[28] 	4242
scalar tree_4_3_u04_r8_network.node[28].content_store 	misses[28] 	8802
scalar tree_4_3_u04_r8_network.node[28].content_store 	decision_yes[28] 	32
scalar tree_4_3_u04_r8_network.node[28].content_store 	decision_no[28] 	8770
scalar tree_4_3_u04_r8_network.node[28].content_store 	decision_ratio[28] 	0.0036355373778687
scalar tree_4_3_u04_r8_network.node[29].core_layer 	interests[29] 	12549
scalar tree_4_3_u04_r8_network.node[29].core_layer 	data[29] 	8890
scalar tree_4_3_u04_r8_network.node[29].content_store 	p_hit[29] 	0.29149733046458
scalar tree_4_3_u04_r8_network.node[29].content_store 	hits[29] 	3658
scalar tree_4_3_u04_r8_network.node[29].content_store 	misses[29] 	8891
scalar tree_4_3_u04_r8_network.node[29].content_store 	decision_yes[29] 	23
scalar tree_4_3_u04_r8_network.node[29].content_store 	decision_no[29] 	8867
scalar tree_4_3_u04_r8_network.node[29].content_store 	decision_ratio[29] 	0.0025871766029246
scalar tree_4_3_u04_r8_network.node[30].core_layer 	interests[30] 	12380
scalar tree_4_3_u04_r8_network.node[30].core_layer 	data[30] 	8716
scalar tree_4_3_u04_r8_network.node[30].content_store 	p_hit[30] 	0.29596122778675
scalar tree_4_3_u04_r8_network.node[30].content_store 	hits[30] 	3664
scalar tree_4_3_u04_r8_network.node[30].content_store 	misses[30] 	8716
scalar tree_4_3_u04_r8_network.node[30].content_store 	decision_yes[30] 	26
scalar tree_4_3_u04_r8_network.node[30].content_store 	decision_no[30] 	8690
scalar tree_4_3_u04_r8_network.node[30].content_store 	decision_ratio[30] 	0.0029830197338229
scalar tree_4_3_u04_r8_network.node[31].core_layer 	interests[31] 	12591
scalar tree_4_3_u04_r8_network.node[31].core_layer 	data[31] 	8892
scalar tree_4_3_u04_r8_network.node[31].content_store 	p_hit[31] 	0.29378127233738
scalar tree_4_3_u04_r8_network.node[31].content_store 	hits[31] 	3699
scalar tree_4_3_u04_r8_network.node[31].content_store 	misses[31] 	8892
scalar tree_4_3_u04_r8_network.node[31].content_store 	decision_yes[31] 	30
scalar tree_4_3_u04_r8_network.node[31].content_store 	decision_no[31] 	8862
scalar tree_4_3_u04_r8_network.node[31].content_store 	decision_ratio[31] 	0.0033738191632928
scalar tree_4_3_u04_r8_network.node[32].core_layer 	interests[32] 	12427
scalar tree_4_3_u04_r8_network.node[32].core_layer 	data[32] 	8813
scalar tree_4_3_u04_r8_network.node[32].content_store 	p_hit[32] 	0.29073790939084
scalar tree_4_3_u04_r8_network.node[32].content_store 	hits[32] 	3613
scalar tree_4_3_u04_r8_network.node[32].content_store 	misses[32] 	8814
scalar tree_4_3_u04_r8_network.node[32].content_store 	decision_yes[32] 	33
scalar tree_4_3_u04_r8_network.node[32].content_store 	decision_no[32] 	8780
scalar tree_4_3_u04_r8_network.node[32].content_store 	decision_ratio[32] 	0.0037444683989561
scalar tree_4_3_u04_r8_network.node[33].core_layer 	interests[33] 	12629
scalar tree_4_3_u04_r8_network.node[33].core_layer 	data[33] 	8694
scalar tree_4_3_u04_r8_network.node[33].content_store 	p_hit[33] 	0.31158444849157
scalar tree_4_3_u04_r8_network.node[33].content_store 	hits[33] 	3935
scalar tree_4_3_u04_r8_network.node[33].content_store 	misses[33] 	8694
scalar tree_4_3_u04_r8_network.node[33].content_store 	decision_yes[33] 	36
scalar tree_4_3_u04_r8_network.node[33].content_store 	decision_no[33] 	8658
scalar tree_4_3_u04_r8_network.node[33].content_store 	decision_ratio[33] 	0.0041407867494824
scalar tree_4_3_u04_r8_network.node[34].core_layer 	interests[34] 	12444
scalar tree_4_3_u04_r8_network.node[34].core_layer 	data[34] 	8781
scalar tree_4_3_u04_r8_network.node[34].content_store 	p_hit[34] 	0.2943587270974
scalar tree_4_3_u04_r8_network.node[34].content_store 	hits[34] 	3663
scalar tree_4_3_u04_r8_network.node[34].content_store 	misses[34] 	8781
scalar tree_4_3_u04_r8_network.node[34].content_store 	decision_yes[34] 	21
scalar tree_4_3_u04_r8_network.node[34].content_store 	decision_no[34] 	8760
scalar tree_4_3_u04_r8_network.node[34].content_store 	decision_ratio[34] 	0.0023915271609156
scalar tree_4_3_u04_r8_network.node[35].core_layer 	interests[35] 	12357
scalar tree_4_3_u04_r8_network.node[35].core_layer 	data[35] 	8749
scalar tree_4_3_u04_r8_network.node[35].content_store 	p_hit[35] 	0.29198025410698
scalar tree_4_3_u04_r8_network.node[35].content_store 	hits[35] 	3608
scalar tree_4_3_u04_r8_network.node[35].content_store 	misses[35] 	8749
scalar tree_4_3_u04_r8_network.node[35].content_store 	decision_yes[35] 	21
scalar tree_4_3_u04_r8_network.node[35].content_store 	decision_no[35] 	8728
scalar tree_4_3_u04_r8_network.node[35].content_store 	decision_ratio[35] 	0.0024002743170648
scalar tree_4_3_u04_r8_network.node[36].core_layer 	interests[36] 	12739
scalar tree_4_3_u04_r8_network.node[36].core_layer 	data[36] 	8827
scalar tree_4_3_u04_r8_network.node[36].content_store 	p_hit[36] 	0.30708846848261
scalar tree_4_3_u04_r8_network.node[36].content_store 	hits[36] 	3912
scalar tree_4_3_u04_r8_network.node[36].content_store 	misses[36] 	8827
scalar tree_4_3_u04_r8_network.node[36].content_store 	decision_yes[36] 	32
scalar tree_4_3_u04_r8_network.node[36].content_store 	decision_no[36] 	8795
scalar tree_4_3_u04_r8_network.node[36].content_store 	decision_ratio[36] 	0.0036252407386428
scalar tree_4_3_u04_r8_network.node[37].core_layer 	interests[37] 	12582
scalar tree_4_3_u04_r8_network.node[37].core_layer 	data[37] 	8691
scalar tree_4_3_u04_r8_network.node[37].content_store 	p_hit[37] 	0.30925131139723
scalar tree_4_3_u04_r8_network.node[37].content_store 	hits[37] 	3891
scalar tree_4_3_u04_r8_network.node[37].content_store 	misses[37] 	8691
scalar tree_4_3_u04_r8_network.node[37].content_store 	decision_yes[37] 	36
scalar tree_4_3_u04_r8_network.node[37].content_store 	decision_no[37] 	8655
scalar tree_4_3_u04_r8_network.node[37].content_store 	decision_ratio[37] 	0.0041422160856058
scalar tree_4_3_u04_r8_network.node[38].core_layer 	interests[38] 	12745
scalar tree_4_3_u04_r8_network.node[38].core_layer 	data[38] 	8862
scalar tree_4_3_u04_r8_network.node[38].content_store 	p_hit[38] 	0.30466849744998
scalar tree_4_3_u04_r8_network.node[38].content_store 	hits[38] 	3883
scalar tree_4_3_u04_r8_network.node[38].content_store 	misses[38] 	8862
scalar tree_4_3_u04_r8_network.node[38].content_store 	decision_yes[38] 	34
scalar tree_4_3_u04_r8_network.node[38].content_store 	decision_no[38] 	8828
scalar tree_4_3_u04_r8_network.node[38].content_store 	decision_ratio[38] 	0.0038366057323403
scalar tree_4_3_u04_r8_network.node[39].core_layer 	interests[39] 	12411
scalar tree_4_3_u04_r8_network.node[39].core_layer 	data[39] 	8887
scalar tree_4_3_u04_r8_network.node[39].content_store 	p_hit[39] 	0.28394166465232
scalar tree_4_3_u04_r8_network.node[39].content_store 	hits[39] 	3524
scalar tree_4_3_u04_r8_network.node[39].content_store 	misses[39] 	8887
scalar tree_4_3_u04_r8_network.node[39].content_store 	decision_yes[39] 	27
scalar tree_4_3_u04_r8_network.node[39].content_store 	decision_no[39] 	8860
scalar tree_4_3_u04_r8_network.node[39].content_store 	decision_ratio[39] 	0.0030381456059413
scalar tree_4_3_u04_r8_network.client[13] 	hdistance[13] 	2.6703752906011
scalar tree_4_3_u04_r8_network.client[13] 	downloads[13] 	12044
scalar tree_4_3_u04_r8_network.client[13] 	avg_time[13] 	0.004184985372
scalar tree_4_3_u04_r8_network.client[14] 	hdistance[14] 	2.6541309593144
scalar tree_4_3_u04_r8_network.client[14] 	downloads[14] 	12019
scalar tree_4_3_u04_r8_network.client[14] 	avg_time[14] 	0.004151214839
scalar tree_4_3_u04_r8_network.client[15] 	hdistance[15] 	2.5860426243209
scalar tree_4_3_u04_r8_network.client[15] 	downloads[15] 	11965
scalar tree_4_3_u04_r8_network.client[15] 	avg_time[15] 	0.004027624985
scalar tree_4_3_u04_r8_network.client[16] 	hdistance[16] 	2.5739309210526
scalar tree_4_3_u04_r8_network.client[16] 	downloads[16] 	12160
scalar tree_4_3_u04_r8_network.client[16] 	avg_time[16] 	0.004027135132
scalar tree_4_3_u04_r8_network.client[17] 	hdistance[17] 	2.6051264868487
scalar tree_4_3_u04_r8_network.client[17] 	downloads[17] 	11938
scalar tree_4_3_u04_r8_network.client[17] 	avg_time[17] 	0.004098689473
scalar tree_4_3_u04_r8_network.client[18] 	hdistance[18] 	2.6518181051211
scalar tree_4_3_u04_r8_network.client[18] 	downloads[18] 	11853
scalar tree_4_3_u04_r8_network.client[18] 	avg_time[18] 	0.004170586774
scalar tree_4_3_u04_r8_network.client[19] 	hdistance[19] 	2.6529083797953
scalar tree_4_3_u04_r8_network.client[19] 	downloads[19] 	12017
scalar tree_4_3_u04_r8_network.client[19] 	avg_time[19] 	0.004149285507
scalar tree_4_3_u04_r8_network.client[20] 	hdistance[20] 	2.6344787708574
scalar tree_4_3_u04_r8_network.client[20] 	downloads[20] 	12106
scalar tree_4_3_u04_r8_network.client[20] 	avg_time[20] 	0.004114684186
scalar tree_4_3_u04_r8_network.client[21] 	hdistance[21] 	2.6526446280992
scalar tree_4_3_u04_r8_network.client[21] 	downloads[21] 	12100
scalar tree_4_3_u04_r8_network.client[21] 	avg_time[21] 	0.004147715092
scalar tree_4_3_u04_r8_network.client[22] 	hdistance[22] 	2.5786605004542
scalar tree_4_3_u04_r8_network.client[22] 	downloads[22] 	12109
scalar tree_4_3_u04_r8_network.client[22] 	avg_time[22] 	0.004057144566
scalar tree_4_3_u04_r8_network.client[23] 	hdistance[23] 	2.6416805324459
scalar tree_4_3_u04_r8_network.client[23] 	downloads[23] 	12020
scalar tree_4_3_u04_r8_network.client[23] 	avg_time[23] 	0.004150080155
scalar tree_4_3_u04_r8_network.client[24] 	hdistance[24] 	2.6127769448609
scalar tree_4_3_u04_r8_network.client[24] 	downloads[24] 	12006
scalar tree_4_3_u04_r8_network.client[24] 	avg_time[24] 	0.004110941543
scalar tree_4_3_u04_r8_network.client[25] 	hdistance[25] 	2.6502487562189
scalar tree_4_3_u04_r8_network.client[25] 	downloads[25] 	12060
scalar tree_4_3_u04_r8_network.client[25] 	avg_time[25] 	0.004129847742
scalar tree_4_3_u04_r8_network.client[26] 	hdistance[26] 	2.681634337598
scalar tree_4_3_u04_r8_network.client[26] 	downloads[26] 	12115
scalar tree_4_3_u04_r8_network.client[26] 	avg_time[26] 	0.004183075774
scalar tree_4_3_u04_r8_network.client[27] 	hdistance[27] 	2.6305344784458
scalar tree_4_3_u04_r8_network.client[27] 	downloads[27] 	11993
scalar tree_4_3_u04_r8_network.client[27] 	avg_time[27] 	0.004107893274
scalar tree_4_3_u04_r8_network.client[28] 	hdistance[28] 	2.561431312036
scalar tree_4_3_u04_r8_network.client[28] 	downloads[28] 	11989
scalar tree_4_3_u04_r8_network.client[28] 	avg_time[28] 	0.004029357247
scalar tree_4_3_u04_r8_network.client[29] 	hdistance[29] 	2.6332675222113
scalar tree_4_3_u04_r8_network.client[29] 	downloads[29] 	12156
scalar tree_4_3_u04_r8_network.client[29] 	avg_time[29] 	0.004148048928
scalar tree_4_3_u04_r8_network.client[30] 	hdistance[30] 	2.6377538230133
scalar tree_4_3_u04_r8_network.client[30] 	downloads[30] 	11967
scalar tree_4_3_u04_r8_network.client[30] 	avg_time[30] 	0.004144226965
scalar tree_4_3_u04_r8_network.client[31] 	hdistance[31] 	2.6351772816809
scalar tree_4_3_u04_r8_network.client[31] 	downloads[31] 	12184
scalar tree_4_3_u04_r8_network.client[31] 	avg_time[31] 	0.004119005489
scalar tree_4_3_u04_r8_network.client[32] 	hdistance[32] 	2.6518235440724
scalar tree_4_3_u04_r8_network.client[32] 	downloads[32] 	12037
scalar tree_4_3_u04_r8_network.client[32] 	avg_time[32] 	0.004144694313
scalar tree_4_3_u04_r8_network.client[33] 	hdistance[33] 	2.5823751573647
scalar tree_4_3_u04_r8_network.client[33] 	downloads[33] 	11915
scalar tree_4_3_u04_r8_network.client[33] 	avg_time[33] 	0.004011411204
scalar tree_4_3_u04_r8_network.client[34] 	hdistance[34] 	2.6409423909424
scalar tree_4_3_u04_r8_network.client[34] 	downloads[34] 	12012
scalar tree_4_3_u04_r8_network.client[34] 	avg_time[34] 	0.004121708603
scalar tree_4_3_u04_r8_network.client[35] 	hdistance[35] 	2.6548806032677
scalar tree_4_3_u04_r8_network.client[35] 	downloads[35] 	11935
scalar tree_4_3_u04_r8_network.client[35] 	avg_time[35] 	0.004149808485
scalar tree_4_3_u04_r8_network.client[36] 	hdistance[36] 	2.591954974342
scalar tree_4_3_u04_r8_network.client[36] 	downloads[36] 	12082
scalar tree_4_3_u04_r8_network.client[36] 	avg_time[36] 	0.004029131228
scalar tree_4_3_u04_r8_network.client[37] 	hdistance[37] 	2.5838451830038
scalar tree_4_3_u04_r8_network.client[37] 	downloads[37] 	11885
scalar tree_4_3_u04_r8_network.client[37] 	avg_time[37] 	0.00401244974
scalar tree_4_3_u04_r8_network.client[38] 	hdistance[38] 	2.6018140966963
scalar tree_4_3_u04_r8_network.client[38] 	downloads[38] 	12017
scalar tree_4_3_u04_r8_network.client[38] 	avg_time[38] 	0.004037943262
scalar tree_4_3_u04_r8_network.client[39] 	hdistance[39] 	2.6639113903124
scalar tree_4_3_u04_r8_network.client[39] 	downloads[39] 	12098
scalar tree_4_3_u04_r8_network.client[39] 	avg_time[39] 	0.00415522925
