version 2
run General-92-20160819-16:19:41-23511
attr a 0.9
attr cd lce
attr configname General
attr cr lru
attr datetime 20160819-16:19:41
attr experiment General
attr fsize 1
attr inifile hw5115/scenario_A/NRR-LCE.ini
attr iterationvars "$name=tree_4_3, $un=04, $rep=13, $cd=lce, $cr=lru, $fsize=1, $a=0.9, $sl=nrr, $ttl=1000, $variance=0.05"
attr iterationvars2 "$name=tree_4_3, $un=04, $rep=13, $cd=lce, $cr=lru, $fsize=1, $a=0.9, $sl=nrr, $ttl=1000, $variance=0.05, $repetition=0"
attr measurement "$name=tree_4_3, $un=04, $rep=13, $cd=lce, $cr=lru, $fsize=1, $a=0.9, $sl=nrr, $ttl=1000, $variance=0.05"
attr name tree_4_3
attr network networks.${name}_u${un}_r${rep}_network
attr processid 23511
attr rep 13
attr repetition 0
attr replication #0
attr resultdir results
attr runnumber 92
attr seedset 13
attr sl nrr
attr ttl 1000
attr un 04
attr variance 0.05

scalar . 	a 	0.9
scalar . 	fsize 	1
scalar . 	rep 	13
scalar . 	ttl 	1000
scalar . 	un 	04
scalar . 	variance 	0.05
scalar tree_4_3_u04_r13_network.content_distribution 	repo-0 	0
scalar tree_4_3_u04_r13_network.content_distribution 	client-0 	13
scalar tree_4_3_u04_r13_network.content_distribution 	client-1 	14
scalar tree_4_3_u04_r13_network.content_distribution 	client-2 	15
scalar tree_4_3_u04_r13_network.content_distribution 	client-3 	16
scalar tree_4_3_u04_r13_network.content_distribution 	client-4 	17
scalar tree_4_3_u04_r13_network.content_distribution 	client-5 	18
scalar tree_4_3_u04_r13_network.content_distribution 	client-6 	19
scalar tree_4_3_u04_r13_network.content_distribution 	client-7 	20
scalar tree_4_3_u04_r13_network.content_distribution 	client-8 	21
scalar tree_4_3_u04_r13_network.content_distribution 	client-9 	22
scalar tree_4_3_u04_r13_network.content_distribution 	client-10 	23
scalar tree_4_3_u04_r13_network.content_distribution 	client-11 	24
scalar tree_4_3_u04_r13_network.content_distribution 	client-12 	25
scalar tree_4_3_u04_r13_network.content_distribution 	client-13 	26
scalar tree_4_3_u04_r13_network.content_distribution 	client-14 	27
scalar tree_4_3_u04_r13_network.content_distribution 	client-15 	28
scalar tree_4_3_u04_r13_network.content_distribution 	client-16 	29
scalar tree_4_3_u04_r13_network.content_distribution 	client-17 	30
scalar tree_4_3_u04_r13_network.content_distribution 	client-18 	31
scalar tree_4_3_u04_r13_network.content_distribution 	client-19 	32
scalar tree_4_3_u04_r13_network.content_distribution 	client-20 	33
scalar tree_4_3_u04_r13_network.content_distribution 	client-21 	34
scalar tree_4_3_u04_r13_network.content_distribution 	client-22 	35
scalar tree_4_3_u04_r13_network.content_distribution 	client-23 	36
scalar tree_4_3_u04_r13_network.content_distribution 	client-24 	37
scalar tree_4_3_u04_r13_network.content_distribution 	client-25 	38
scalar tree_4_3_u04_r13_network.content_distribution 	client-26 	39
scalar tree_4_3_u04_r13_network.content_distribution 	repo-0_card 	100000
scalar tree_4_3_u04_r13_network.content_distribution 	repo-0_price 	0
scalar tree_4_3_u04_r13_network.statistics 	stabilization_time 	617.7
scalar tree_4_3_u04_r13_network.statistics 	p_hit 	0.19094347642651
scalar tree_4_3_u04_r13_network.statistics 	interests 	27828.875
scalar tree_4_3_u04_r13_network.statistics 	data 	19714.8
scalar tree_4_3_u04_r13_network.statistics 	hdistance 	3.0561713189106
scalar tree_4_3_u04_r13_network.statistics 	avg_time 	0.004859390893
scalar tree_4_3_u04_r13_network.statistics 	downloads 	324550
scalar tree_4_3_u04_r13_network.statistics 	total_cost 	0
scalar tree_4_3_u04_r13_network.statistics 	total_replicas 	100000
scalar tree_4_3_u04_r13_network.statistics 	inner_hit 	0.37347404097982
scalar tree_4_3_u04_r13_network.node[0].core_layer 	interests[0] 	204088
scalar tree_4_3_u04_r13_network.node[0].core_layer 	repo_load[0] 	203339
scalar tree_4_3_u04_r13_network.node[0].core_layer 	data[0] 	0
scalar tree_4_3_u04_r13_network.node[0].core_layer 	repo_int[0] 	203339
scalar tree_4_3_u04_r13_network.node[0].content_store 	p_hit[0] 	0.0036699854964525
scalar tree_4_3_u04_r13_network.node[0].content_store 	hits[0] 	749
scalar tree_4_3_u04_r13_network.node[0].content_store 	misses[0] 	203339
scalar tree_4_3_u04_r13_network.node[0].content_store 	decision_yes[0] 	203339
scalar tree_4_3_u04_r13_network.node[0].content_store 	decision_no[0] 	0
scalar tree_4_3_u04_r13_network.node[0].content_store 	decision_ratio[0] 	1
scalar tree_4_3_u04_r13_network.node[1].core_layer 	interests[1] 	154040
scalar tree_4_3_u04_r13_network.node[1].core_layer 	data[1] 	152232
scalar tree_4_3_u04_r13_network.node[1].content_store 	p_hit[1] 	0.011672292910932
scalar tree_4_3_u04_r13_network.node[1].content_store 	hits[1] 	1798
scalar tree_4_3_u04_r13_network.node[1].content_store 	misses[1] 	152242
scalar tree_4_3_u04_r13_network.node[1].content_store 	decision_yes[1] 	152196
scalar tree_4_3_u04_r13_network.node[1].content_store 	decision_no[1] 	0
scalar tree_4_3_u04_r13_network.node[1].content_store 	decision_ratio[1] 	1
scalar tree_4_3_u04_r13_network.node[2].core_layer 	interests[2] 	65618
scalar tree_4_3_u04_r13_network.node[2].core_layer 	data[2] 	64006
scalar tree_4_3_u04_r13_network.node[2].content_store 	p_hit[2] 	0.024535950501387
scalar tree_4_3_u04_r13_network.node[2].content_store 	hits[2] 	1610
scalar tree_4_3_u04_r13_network.node[2].content_store 	misses[2] 	64008
scalar tree_4_3_u04_r13_network.node[2].content_store 	decision_yes[2] 	63998
scalar tree_4_3_u04_r13_network.node[2].content_store 	decision_no[2] 	0
scalar tree_4_3_u04_r13_network.node[2].content_store 	decision_ratio[2] 	1
scalar tree_4_3_u04_r13_network.node[3].core_layer 	interests[3] 	20170
scalar tree_4_3_u04_r13_network.node[3].core_layer 	data[3] 	19370
scalar tree_4_3_u04_r13_network.node[3].content_store 	p_hit[3] 	0.039712444224095
scalar tree_4_3_u04_r13_network.node[3].content_store 	hits[3] 	801
scalar tree_4_3_u04_r13_network.node[3].content_store 	misses[3] 	19369
scalar tree_4_3_u04_r13_network.node[3].content_store 	decision_yes[3] 	19370
scalar tree_4_3_u04_r13_network.node[3].content_store 	decision_no[3] 	0
scalar tree_4_3_u04_r13_network.node[3].content_store 	decision_ratio[3] 	1
scalar tree_4_3_u04_r13_network.node[4].core_layer 	interests[4] 	43599
scalar tree_4_3_u04_r13_network.node[4].core_layer 	data[4] 	41263
scalar tree_4_3_u04_r13_network.node[4].content_store 	p_hit[4] 	0.053510401614716
scalar tree_4_3_u04_r13_network.node[4].content_store 	hits[4] 	2333
scalar tree_4_3_u04_r13_network.node[4].content_store 	misses[4] 	41266
scalar tree_4_3_u04_r13_network.node[4].content_store 	decision_yes[4] 	41258
scalar tree_4_3_u04_r13_network.node[4].content_store 	decision_no[4] 	0
scalar tree_4_3_u04_r13_network.node[4].content_store 	decision_ratio[4] 	1
scalar tree_4_3_u04_r13_network.node[5].core_layer 	interests[5] 	22242
scalar tree_4_3_u04_r13_network.node[5].core_layer 	data[5] 	20132
scalar tree_4_3_u04_r13_network.node[5].content_store 	p_hit[5] 	0.094865569643018
scalar tree_4_3_u04_r13_network.node[5].content_store 	hits[5] 	2110
scalar tree_4_3_u04_r13_network.node[5].content_store 	misses[5] 	20132
scalar tree_4_3_u04_r13_network.node[5].content_store 	decision_yes[5] 	20128
scalar tree_4_3_u04_r13_network.node[5].content_store 	decision_no[5] 	0
scalar tree_4_3_u04_r13_network.node[5].content_store 	decision_ratio[5] 	1
scalar tree_4_3_u04_r13_network.node[6].core_layer 	interests[6] 	34282
scalar tree_4_3_u04_r13_network.node[6].core_layer 	data[6] 	31456
scalar tree_4_3_u04_r13_network.node[6].content_store 	p_hit[6] 	0.082258911382066
scalar tree_4_3_u04_r13_network.node[6].content_store 	hits[6] 	2820
scalar tree_4_3_u04_r13_network.node[6].content_store 	misses[6] 	31462
scalar tree_4_3_u04_r13_network.node[6].content_store 	decision_yes[6] 	31453
scalar tree_4_3_u04_r13_network.node[6].content_store 	decision_no[6] 	0
scalar tree_4_3_u04_r13_network.node[6].content_store 	decision_ratio[6] 	1
scalar tree_4_3_u04_r13_network.node[7].core_layer 	interests[7] 	47061
scalar tree_4_3_u04_r13_network.node[7].core_layer 	data[7] 	43117
scalar tree_4_3_u04_r13_network.node[7].content_store 	p_hit[7] 	0.083721127897835
scalar tree_4_3_u04_r13_network.node[7].content_store 	hits[7] 	3940
scalar tree_4_3_u04_r13_network.node[7].content_store 	misses[7] 	43121
scalar tree_4_3_u04_r13_network.node[7].content_store 	decision_yes[7] 	43112
scalar tree_4_3_u04_r13_network.node[7].content_store 	decision_no[7] 	0
scalar tree_4_3_u04_r13_network.node[7].content_store 	decision_ratio[7] 	1
scalar tree_4_3_u04_r13_network.node[8].core_layer 	interests[8] 	22391
scalar tree_4_3_u04_r13_network.node[8].core_layer 	data[8] 	20539
scalar tree_4_3_u04_r13_network.node[8].content_store 	p_hit[8] 	0.082667143048546
scalar tree_4_3_u04_r13_network.node[8].content_store 	hits[8] 	1851
scalar tree_4_3_u04_r13_network.node[8].content_store 	misses[8] 	20540
scalar tree_4_3_u04_r13_network.node[8].content_store 	decision_yes[8] 	20538
scalar tree_4_3_u04_r13_network.node[8].content_store 	decision_no[8] 	0
scalar tree_4_3_u04_r13_network.node[8].content_store 	decision_ratio[8] 	1
scalar tree_4_3_u04_r13_network.node[9].core_layer 	interests[9] 	32102
scalar tree_4_3_u04_r13_network.node[9].core_layer 	data[9] 	30528
scalar tree_4_3_u04_r13_network.node[9].content_store 	p_hit[9] 	0.048906610180051
scalar tree_4_3_u04_r13_network.node[9].content_store 	hits[9] 	1570
scalar tree_4_3_u04_r13_network.node[9].content_store 	misses[9] 	30532
scalar tree_4_3_u04_r13_network.node[9].content_store 	decision_yes[9] 	30525
scalar tree_4_3_u04_r13_network.node[9].content_store 	decision_no[9] 	0
scalar tree_4_3_u04_r13_network.node[9].content_store 	decision_ratio[9] 	1
scalar tree_4_3_u04_r13_network.node[10].core_layer 	interests[10] 	53262
scalar tree_4_3_u04_r13_network.node[10].core_layer 	data[10] 	50314
scalar tree_4_3_u04_r13_network.node[10].content_store 	p_hit[10] 	0.055330254215013
scalar tree_4_3_u04_r13_network.node[10].content_store 	hits[10] 	2947
scalar tree_4_3_u04_r13_network.node[10].content_store 	misses[10] 	50315
scalar tree_4_3_u04_r13_network.node[10].content_store 	decision_yes[10] 	50309
scalar tree_4_3_u04_r13_network.node[10].content_store 	decision_no[10] 	0
scalar tree_4_3_u04_r13_network.node[10].content_store 	decision_ratio[10] 	1
scalar tree_4_3_u04_r13_network.node[11].core_layer 	interests[11] 	26627
scalar tree_4_3_u04_r13_network.node[11].core_layer 	data[11] 	23068
scalar tree_4_3_u04_r13_network.node[11].content_store 	p_hit[11] 	0.13351109775791
scalar tree_4_3_u04_r13_network.node[11].content_store 	hits[11] 	3555
scalar tree_4_3_u04_r13_network.node[11].content_store 	misses[11] 	23072
scalar tree_4_3_u04_r13_network.node[11].content_store 	decision_yes[11] 	23065
scalar tree_4_3_u04_r13_network.node[11].content_store 	decision_no[11] 	0
scalar tree_4_3_u04_r13_network.node[11].content_store 	decision_ratio[11] 	1
scalar tree_4_3_u04_r13_network.node[12].core_layer 	interests[12] 	21957
scalar tree_4_3_u04_r13_network.node[12].core_layer 	data[12] 	20563
scalar tree_4_3_u04_r13_network.node[12].content_store 	p_hit[12] 	0.063487726009928
scalar tree_4_3_u04_r13_network.node[12].content_store 	hits[12] 	1394
scalar tree_4_3_u04_r13_network.node[12].content_store 	misses[12] 	20563
scalar tree_4_3_u04_r13_network.node[12].content_store 	decision_yes[12] 	20563
scalar tree_4_3_u04_r13_network.node[12].content_store 	decision_no[12] 	0
scalar tree_4_3_u04_r13_network.node[12].content_store 	decision_ratio[12] 	1
scalar tree_4_3_u04_r13_network.node[13].core_layer 	interests[13] 	13388
scalar tree_4_3_u04_r13_network.node[13].core_layer 	data[13] 	10029
scalar tree_4_3_u04_r13_network.node[13].content_store 	p_hit[13] 	0.25082163131162
scalar tree_4_3_u04_r13_network.node[13].content_store 	hits[13] 	3358
scalar tree_4_3_u04_r13_network.node[13].content_store 	misses[13] 	10030
scalar tree_4_3_u04_r13_network.node[13].content_store 	decision_yes[13] 	10029
scalar tree_4_3_u04_r13_network.node[13].content_store 	decision_no[13] 	0
scalar tree_4_3_u04_r13_network.node[13].content_store 	decision_ratio[13] 	1
scalar tree_4_3_u04_r13_network.node[14].core_layer 	interests[14] 	13613
scalar tree_4_3_u04_r13_network.node[14].core_layer 	data[14] 	10152
scalar tree_4_3_u04_r13_network.node[14].content_store 	p_hit[14] 	0.25424226841989
scalar tree_4_3_u04_r13_network.node[14].content_store 	hits[14] 	3461
scalar tree_4_3_u04_r13_network.node[14].content_store 	misses[14] 	10152
scalar tree_4_3_u04_r13_network.node[14].content_store 	decision_yes[14] 	10152
scalar tree_4_3_u04_r13_network.node[14].content_store 	decision_no[14] 	0
scalar tree_4_3_u04_r13_network.node[14].content_store 	decision_ratio[14] 	1
scalar tree_4_3_u04_r13_network.node[15].core_layer 	interests[15] 	13315
scalar tree_4_3_u04_r13_network.node[15].core_layer 	data[15] 	10239
scalar tree_4_3_u04_r13_network.node[15].content_store 	p_hit[15] 	0.23094254600075
scalar tree_4_3_u04_r13_network.node[15].content_store 	hits[15] 	3075
scalar tree_4_3_u04_r13_network.node[15].content_store 	misses[15] 	10240
scalar tree_4_3_u04_r13_network.node[15].content_store 	decision_yes[15] 	10239
scalar tree_4_3_u04_r13_network.node[15].content_store 	decision_no[15] 	0
scalar tree_4_3_u04_r13_network.node[15].content_store 	decision_ratio[15] 	1
scalar tree_4_3_u04_r13_network.node[16].core_layer 	interests[16] 	14164
scalar tree_4_3_u04_r13_network.node[16].core_layer 	data[16] 	10059
scalar tree_4_3_u04_r13_network.node[16].content_store 	p_hit[16] 	0.28974865857103
scalar tree_4_3_u04_r13_network.node[16].content_store 	hits[16] 	4104
scalar tree_4_3_u04_r13_network.node[16].content_store 	misses[16] 	10060
scalar tree_4_3_u04_r13_network.node[16].content_store 	decision_yes[16] 	10059
scalar tree_4_3_u04_r13_network.node[16].content_store 	decision_no[16] 	0
scalar tree_4_3_u04_r13_network.node[16].content_store 	decision_ratio[16] 	1
scalar tree_4_3_u04_r13_network.node[17].core_layer 	interests[17] 	12918
scalar tree_4_3_u04_r13_network.node[17].core_layer 	data[17] 	10150
scalar tree_4_3_u04_r13_network.node[17].content_store 	p_hit[17] 	0.21427465551943
scalar tree_4_3_u04_r13_network.node[17].content_store 	hits[17] 	2768
scalar tree_4_3_u04_r13_network.node[17].content_store 	misses[17] 	10150
scalar tree_4_3_u04_r13_network.node[17].content_store 	decision_yes[17] 	10150
scalar tree_4_3_u04_r13_network.node[17].content_store 	decision_no[17] 	0
scalar tree_4_3_u04_r13_network.node[17].content_store 	decision_ratio[17] 	1
scalar tree_4_3_u04_r13_network.node[18].core_layer 	interests[18] 	14012
scalar tree_4_3_u04_r13_network.node[18].core_layer 	data[18] 	10089
scalar tree_4_3_u04_r13_network.node[18].content_store 	p_hit[18] 	0.27997430773623
scalar tree_4_3_u04_r13_network.node[18].content_store 	hits[18] 	3923
scalar tree_4_3_u04_r13_network.node[18].content_store 	misses[18] 	10089
scalar tree_4_3_u04_r13_network.node[18].content_store 	decision_yes[18] 	10089
scalar tree_4_3_u04_r13_network.node[18].content_store 	decision_no[18] 	0
scalar tree_4_3_u04_r13_network.node[18].content_store 	decision_ratio[18] 	1
scalar tree_4_3_u04_r13_network.node[19].core_layer 	interests[19] 	13204
scalar tree_4_3_u04_r13_network.node[19].core_layer 	data[19] 	10075
scalar tree_4_3_u04_r13_network.node[19].content_store 	p_hit[19] 	0.23682217509846
scalar tree_4_3_u04_r13_network.node[19].content_store 	hits[19] 	3127
scalar tree_4_3_u04_r13_network.node[19].content_store 	misses[19] 	10077
scalar tree_4_3_u04_r13_network.node[19].content_store 	decision_yes[19] 	10075
scalar tree_4_3_u04_r13_network.node[19].content_store 	decision_no[19] 	0
scalar tree_4_3_u04_r13_network.node[19].content_store 	decision_ratio[19] 	1
scalar tree_4_3_u04_r13_network.node[20].core_layer 	interests[20] 	13177
scalar tree_4_3_u04_r13_network.node[20].core_layer 	data[20] 	10071
scalar tree_4_3_u04_r13_network.node[20].content_store 	p_hit[20] 	0.23571374364423
scalar tree_4_3_u04_r13_network.node[20].content_store 	hits[20] 	3106
scalar tree_4_3_u04_r13_network.node[20].content_store 	misses[20] 	10071
scalar tree_4_3_u04_r13_network.node[20].content_store 	decision_yes[20] 	10071
scalar tree_4_3_u04_r13_network.node[20].content_store 	decision_no[20] 	0
scalar tree_4_3_u04_r13_network.node[20].content_store 	decision_ratio[20] 	1
scalar tree_4_3_u04_r13_network.node[21].core_layer 	interests[21] 	13184
scalar tree_4_3_u04_r13_network.node[21].core_layer 	data[21] 	10057
scalar tree_4_3_u04_r13_network.node[21].content_store 	p_hit[21] 	0.23718143203883
scalar tree_4_3_u04_r13_network.node[21].content_store 	hits[21] 	3127
scalar tree_4_3_u04_r13_network.node[21].content_store 	misses[21] 	10057
scalar tree_4_3_u04_r13_network.node[21].content_store 	decision_yes[21] 	10057
scalar tree_4_3_u04_r13_network.node[21].content_store 	decision_no[21] 	0
scalar tree_4_3_u04_r13_network.node[21].content_store 	decision_ratio[21] 	1
scalar tree_4_3_u04_r13_network.node[22].core_layer 	interests[22] 	13783
scalar tree_4_3_u04_r13_network.node[22].core_layer 	data[22] 	9887
scalar tree_4_3_u04_r13_network.node[22].content_store 	p_hit[22] 	0.28266705361677
scalar tree_4_3_u04_r13_network.node[22].content_store 	hits[22] 	3896
scalar tree_4_3_u04_r13_network.node[22].content_store 	misses[22] 	9887
scalar tree_4_3_u04_r13_network.node[22].content_store 	decision_yes[22] 	9887
scalar tree_4_3_u04_r13_network.node[22].content_store 	decision_no[22] 	0
scalar tree_4_3_u04_r13_network.node[22].content_store 	decision_ratio[22] 	1
scalar tree_4_3_u04_r13_network.node[23].core_layer 	interests[23] 	13830
scalar tree_4_3_u04_r13_network.node[23].core_layer 	data[23] 	9972
scalar tree_4_3_u04_r13_network.node[23].content_store 	p_hit[23] 	0.27895878524946
scalar tree_4_3_u04_r13_network.node[23].content_store 	hits[23] 	3858
scalar tree_4_3_u04_r13_network.node[23].content_store 	misses[23] 	9972
scalar tree_4_3_u04_r13_network.node[23].content_store 	decision_yes[23] 	9972
scalar tree_4_3_u04_r13_network.node[23].content_store 	decision_no[23] 	0
scalar tree_4_3_u04_r13_network.node[23].content_store 	decision_ratio[23] 	1
scalar tree_4_3_u04_r13_network.node[24].core_layer 	interests[24] 	14043
scalar tree_4_3_u04_r13_network.node[24].core_layer 	data[24] 	10190
scalar tree_4_3_u04_r13_network.node[24].content_store 	p_hit[24] 	0.27430036317026
scalar tree_4_3_u04_r13_network.node[24].content_store 	hits[24] 	3852
scalar tree_4_3_u04_r13_network.node[24].content_store 	misses[24] 	10191
scalar tree_4_3_u04_r13_network.node[24].content_store 	decision_yes[24] 	10190
scalar tree_4_3_u04_r13_network.node[24].content_store 	decision_no[24] 	0
scalar tree_4_3_u04_r13_network.node[24].content_store 	decision_ratio[24] 	1
scalar tree_4_3_u04_r13_network.node[25].core_layer 	interests[25] 	15042
scalar tree_4_3_u04_r13_network.node[25].core_layer 	data[25] 	10095
scalar tree_4_3_u04_r13_network.node[25].content_store 	p_hit[25] 	0.32887913841245
scalar tree_4_3_u04_r13_network.node[25].content_store 	hits[25] 	4947
scalar tree_4_3_u04_r13_network.node[25].content_store 	misses[25] 	10095
scalar tree_4_3_u04_r13_network.node[25].content_store 	decision_yes[25] 	10095
scalar tree_4_3_u04_r13_network.node[25].content_store 	decision_no[25] 	0
scalar tree_4_3_u04_r13_network.node[25].content_store 	decision_ratio[25] 	1
scalar tree_4_3_u04_r13_network.node[26].core_layer 	interests[26] 	12708
scalar tree_4_3_u04_r13_network.node[26].core_layer 	data[26] 	10086
scalar tree_4_3_u04_r13_network.node[26].content_store 	p_hit[26] 	0.20616934214668
scalar tree_4_3_u04_r13_network.node[26].content_store 	hits[26] 	2620
scalar tree_4_3_u04_r13_network.node[26].content_store 	misses[26] 	10088
scalar tree_4_3_u04_r13_network.node[26].content_store 	decision_yes[26] 	10086
scalar tree_4_3_u04_r13_network.node[26].content_store 	decision_no[26] 	0
scalar tree_4_3_u04_r13_network.node[26].content_store 	decision_ratio[26] 	1
scalar tree_4_3_u04_r13_network.node[27].core_layer 	interests[27] 	12717
scalar tree_4_3_u04_r13_network.node[27].core_layer 	data[27] 	9955
scalar tree_4_3_u04_r13_network.node[27].content_store 	p_hit[27] 	0.21703231894315
scalar tree_4_3_u04_r13_network.node[27].content_store 	hits[27] 	2760
scalar tree_4_3_u04_r13_network.node[27].content_store 	misses[27] 	9957
scalar tree_4_3_u04_r13_network.node[27].content_store 	decision_yes[27] 	9955
scalar tree_4_3_u04_r13_network.node[27].content_store 	decision_no[27] 	0
scalar tree_4_3_u04_r13_network.node[27].content_store 	decision_ratio[27] 	1
scalar tree_4_3_u04_r13_network.node[28].core_layer 	interests[28] 	12923
scalar tree_4_3_u04_r13_network.node[28].core_layer 	data[28] 	9996
scalar tree_4_3_u04_r13_network.node[28].content_store 	p_hit[28] 	0.22641801439294
scalar tree_4_3_u04_r13_network.node[28].content_store 	hits[28] 	2926
scalar tree_4_3_u04_r13_network.node[28].content_store 	misses[28] 	9997
scalar tree_4_3_u04_r13_network.node[28].content_store 	decision_yes[28] 	9996
scalar tree_4_3_u04_r13_network.node[28].content_store 	decision_no[28] 	0
scalar tree_4_3_u04_r13_network.node[28].content_store 	decision_ratio[28] 	1
scalar tree_4_3_u04_r13_network.node[29].core_layer 	interests[29] 	12814
scalar tree_4_3_u04_r13_network.node[29].core_layer 	data[29] 	9881
scalar tree_4_3_u04_r13_network.node[29].content_store 	p_hit[29] 	0.22873419697206
scalar tree_4_3_u04_r13_network.node[29].content_store 	hits[29] 	2931
scalar tree_4_3_u04_r13_network.node[29].content_store 	misses[29] 	9883
scalar tree_4_3_u04_r13_network.node[29].content_store 	decision_yes[29] 	9881
scalar tree_4_3_u04_r13_network.node[29].content_store 	decision_no[29] 	0
scalar tree_4_3_u04_r13_network.node[29].content_store 	decision_ratio[29] 	1
scalar tree_4_3_u04_r13_network.node[30].core_layer 	interests[30] 	13148
scalar tree_4_3_u04_r13_network.node[30].core_layer 	data[30] 	10179
scalar tree_4_3_u04_r13_network.node[30].content_store 	p_hit[30] 	0.22581381198661
scalar tree_4_3_u04_r13_network.node[30].content_store 	hits[30] 	2969
scalar tree_4_3_u04_r13_network.node[30].content_store 	misses[30] 	10179
scalar tree_4_3_u04_r13_network.node[30].content_store 	decision_yes[30] 	10179
scalar tree_4_3_u04_r13_network.node[30].content_store 	decision_no[30] 	0
scalar tree_4_3_u04_r13_network.node[30].content_store 	decision_ratio[30] 	1
scalar tree_4_3_u04_r13_network.node[31].core_layer 	interests[31] 	13575
scalar tree_4_3_u04_r13_network.node[31].core_layer 	data[31] 	10023
scalar tree_4_3_u04_r13_network.node[31].content_store 	p_hit[31] 	0.26165745856354
scalar tree_4_3_u04_r13_network.node[31].content_store 	hits[31] 	3552
scalar tree_4_3_u04_r13_network.node[31].content_store 	misses[31] 	10023
scalar tree_4_3_u04_r13_network.node[31].content_store 	decision_yes[31] 	10023
scalar tree_4_3_u04_r13_network.node[31].content_store 	decision_no[31] 	0
scalar tree_4_3_u04_r13_network.node[31].content_store 	decision_ratio[31] 	1
scalar tree_4_3_u04_r13_network.node[32].core_layer 	interests[32] 	15162
scalar tree_4_3_u04_r13_network.node[32].core_layer 	data[32] 	10192
scalar tree_4_3_u04_r13_network.node[32].content_store 	p_hit[32] 	0.32785912148793
scalar tree_4_3_u04_r13_network.node[32].content_store 	hits[32] 	4971
scalar tree_4_3_u04_r13_network.node[32].content_store 	misses[32] 	10191
scalar tree_4_3_u04_r13_network.node[32].content_store 	decision_yes[32] 	10192
scalar tree_4_3_u04_r13_network.node[32].content_store 	decision_no[32] 	0
scalar tree_4_3_u04_r13_network.node[32].content_store 	decision_ratio[32] 	1
scalar tree_4_3_u04_r13_network.node[33].core_layer 	interests[33] 	14330
scalar tree_4_3_u04_r13_network.node[33].core_layer 	data[33] 	10057
scalar tree_4_3_u04_r13_network.node[33].content_store 	p_hit[33] 	0.29818562456385
scalar tree_4_3_u04_r13_network.node[33].content_store 	hits[33] 	4273
scalar tree_4_3_u04_r13_network.node[33].content_store 	misses[33] 	10057
scalar tree_4_3_u04_r13_network.node[33].content_store 	decision_yes[33] 	10057
scalar tree_4_3_u04_r13_network.node[33].content_store 	decision_no[33] 	0
scalar tree_4_3_u04_r13_network.node[33].content_store 	decision_ratio[33] 	1
scalar tree_4_3_u04_r13_network.node[34].core_layer 	interests[34] 	15049
scalar tree_4_3_u04_r13_network.node[34].core_layer 	data[34] 	10119
scalar tree_4_3_u04_r13_network.node[34].content_store 	p_hit[34] 	0.32759651804107
scalar tree_4_3_u04_r13_network.node[34].content_store 	hits[34] 	4930
scalar tree_4_3_u04_r13_network.node[34].content_store 	misses[34] 	10119
scalar tree_4_3_u04_r13_network.node[34].content_store 	decision_yes[34] 	10119
scalar tree_4_3_u04_r13_network.node[34].content_store 	decision_no[34] 	0
scalar tree_4_3_u04_r13_network.node[34].content_store 	decision_ratio[34] 	1
scalar tree_4_3_u04_r13_network.node[35].core_layer 	interests[35] 	12927
scalar tree_4_3_u04_r13_network.node[35].core_layer 	data[35] 	10057
scalar tree_4_3_u04_r13_network.node[35].content_store 	p_hit[35] 	0.221783863232
scalar tree_4_3_u04_r13_network.node[35].content_store 	hits[35] 	2867
scalar tree_4_3_u04_r13_network.node[35].content_store 	misses[35] 	10060
scalar tree_4_3_u04_r13_network.node[35].content_store 	decision_yes[35] 	10057
scalar tree_4_3_u04_r13_network.node[35].content_store 	decision_no[35] 	0
scalar tree_4_3_u04_r13_network.node[35].content_store 	decision_ratio[35] 	1
scalar tree_4_3_u04_r13_network.node[36].core_layer 	interests[36] 	13099
scalar tree_4_3_u04_r13_network.node[36].core_layer 	data[36] 	10171
scalar tree_4_3_u04_r13_network.node[36].content_store 	p_hit[36] 	0.22352851362699
scalar tree_4_3_u04_r13_network.node[36].content_store 	hits[36] 	2928
scalar tree_4_3_u04_r13_network.node[36].content_store 	misses[36] 	10171
scalar tree_4_3_u04_r13_network.node[36].content_store 	decision_yes[36] 	10171
scalar tree_4_3_u04_r13_network.node[36].content_store 	decision_no[36] 	0
scalar tree_4_3_u04_r13_network.node[36].content_store 	decision_ratio[36] 	1
scalar tree_4_3_u04_r13_network.node[37].core_layer 	interests[37] 	14297
scalar tree_4_3_u04_r13_network.node[37].core_layer 	data[37] 	9905
scalar tree_4_3_u04_r13_network.node[37].content_store 	p_hit[37] 	0.30719731412184
scalar tree_4_3_u04_r13_network.node[37].content_store 	hits[37] 	4392
scalar tree_4_3_u04_r13_network.node[37].content_store 	misses[37] 	9905
scalar tree_4_3_u04_r13_network.node[37].content_store 	decision_yes[37] 	9905
scalar tree_4_3_u04_r13_network.node[37].content_store 	decision_no[37] 	0
scalar tree_4_3_u04_r13_network.node[37].content_store 	decision_ratio[37] 	1
scalar tree_4_3_u04_r13_network.node[38].core_layer 	interests[38] 	12608
scalar tree_4_3_u04_r13_network.node[38].core_layer 	data[38] 	10102
scalar tree_4_3_u04_r13_network.node[38].content_store 	p_hit[38] 	0.19876269035533
scalar tree_4_3_u04_r13_network.node[38].content_store 	hits[38] 	2506
scalar tree_4_3_u04_r13_network.node[38].content_store 	misses[38] 	10102
scalar tree_4_3_u04_r13_network.node[38].content_store 	decision_yes[38] 	10102
scalar tree_4_3_u04_r13_network.node[38].content_store 	decision_no[38] 	0
scalar tree_4_3_u04_r13_network.node[38].content_store 	decision_ratio[38] 	1
scalar tree_4_3_u04_r13_network.node[39].core_layer 	interests[39] 	12686
scalar tree_4_3_u04_r13_network.node[39].core_layer 	data[39] 	10216
scalar tree_4_3_u04_r13_network.node[39].content_store 	p_hit[39] 	0.19462399495507
scalar tree_4_3_u04_r13_network.node[39].content_store 	hits[39] 	2469
scalar tree_4_3_u04_r13_network.node[39].content_store 	misses[39] 	10217
scalar tree_4_3_u04_r13_network.node[39].content_store 	decision_yes[39] 	10216
scalar tree_4_3_u04_r13_network.node[39].content_store 	decision_no[39] 	0
scalar tree_4_3_u04_r13_network.node[39].content_store 	decision_ratio[39] 	1
scalar tree_4_3_u04_r13_network.client[13] 	hdistance[13] 	3.0741666666667
scalar tree_4_3_u04_r13_network.client[13] 	downloads[13] 	12000
scalar tree_4_3_u04_r13_network.client[13] 	avg_time[13] 	0.004896743512
scalar tree_4_3_u04_r13_network.client[14] 	hdistance[14] 	3.0803159973667
scalar tree_4_3_u04_r13_network.client[14] 	downloads[14] 	12152
scalar tree_4_3_u04_r13_network.client[14] 	avg_time[14] 	0.004899419649
scalar tree_4_3_u04_r13_network.client[15] 	hdistance[15] 	3.1261974177426
scalar tree_4_3_u04_r13_network.client[15] 	downloads[15] 	12005
scalar tree_4_3_u04_r13_network.client[15] 	avg_time[15] 	0.004979491907
scalar tree_4_3_u04_r13_network.client[16] 	hdistance[16] 	3.0070306038048
scalar tree_4_3_u04_r13_network.client[16] 	downloads[16] 	12090
scalar tree_4_3_u04_r13_network.client[16] 	avg_time[16] 	0.004745004472
scalar tree_4_3_u04_r13_network.client[17] 	hdistance[17] 	3.0934709592857
scalar tree_4_3_u04_r13_network.client[17] 	downloads[17] 	12207
scalar tree_4_3_u04_r13_network.client[17] 	avg_time[17] 	0.00496075717
scalar tree_4_3_u04_r13_network.client[18] 	hdistance[18] 	3.0147872779843
scalar tree_4_3_u04_r13_network.client[18] 	downloads[18] 	12105
scalar tree_4_3_u04_r13_network.client[18] 	avg_time[18] 	0.004778161725
scalar tree_4_3_u04_r13_network.client[19] 	hdistance[19] 	3.0830418124271
scalar tree_4_3_u04_r13_network.client[19] 	downloads[19] 	12006
scalar tree_4_3_u04_r13_network.client[19] 	avg_time[19] 	0.004910271368
scalar tree_4_3_u04_r13_network.client[20] 	hdistance[20] 	3.0936636812589
scalar tree_4_3_u04_r13_network.client[20] 	downloads[20] 	11947
scalar tree_4_3_u04_r13_network.client[20] 	avg_time[20] 	0.004942755709
scalar tree_4_3_u04_r13_network.client[21] 	hdistance[21] 	3.0897253985477
scalar tree_4_3_u04_r13_network.client[21] 	downloads[21] 	11981
scalar tree_4_3_u04_r13_network.client[21] 	avg_time[21] 	0.004918997084
scalar tree_4_3_u04_r13_network.client[22] 	hdistance[22] 	3.0283922366302
scalar tree_4_3_u04_r13_network.client[22] 	downloads[22] 	11799
scalar tree_4_3_u04_r13_network.client[22] 	avg_time[22] 	0.004866950346
scalar tree_4_3_u04_r13_network.client[23] 	hdistance[23] 	3.0347117162548
scalar tree_4_3_u04_r13_network.client[23] 	downloads[23] 	11898
scalar tree_4_3_u04_r13_network.client[23] 	avg_time[23] 	0.0048708997
scalar tree_4_3_u04_r13_network.client[24] 	hdistance[24] 	3.0466397960023
scalar tree_4_3_u04_r13_network.client[24] 	downloads[24] 	12157
scalar tree_4_3_u04_r13_network.client[24] 	avg_time[24] 	0.004876622995
scalar tree_4_3_u04_r13_network.client[25] 	hdistance[25] 	2.9628378378378
scalar tree_4_3_u04_r13_network.client[25] 	downloads[25] 	12136
scalar tree_4_3_u04_r13_network.client[25] 	avg_time[25] 	0.004727985382
scalar tree_4_3_u04_r13_network.client[26] 	hdistance[26] 	3.1158648243716
scalar tree_4_3_u04_r13_network.client[26] 	downloads[26] 	12014
scalar tree_4_3_u04_r13_network.client[26] 	avg_time[26] 	0.004937974978
scalar tree_4_3_u04_r13_network.client[27] 	hdistance[27] 	3.1039959872931
scalar tree_4_3_u04_r13_network.client[27] 	downloads[27] 	11962
scalar tree_4_3_u04_r13_network.client[27] 	avg_time[27] 	0.0049119954
scalar tree_4_3_u04_r13_network.client[28] 	hdistance[28] 	3.1245178601375
scalar tree_4_3_u04_r13_network.client[28] 	downloads[28] 	11926
scalar tree_4_3_u04_r13_network.client[28] 	avg_time[28] 	0.004958620797
scalar tree_4_3_u04_r13_network.client[29] 	hdistance[29] 	3.1264299635624
scalar tree_4_3_u04_r13_network.client[29] 	downloads[29] 	11801
scalar tree_4_3_u04_r13_network.client[29] 	avg_time[29] 	0.004953896259
scalar tree_4_3_u04_r13_network.client[30] 	hdistance[30] 	3.1151944627554
scalar tree_4_3_u04_r13_network.client[30] 	downloads[30] 	12136
scalar tree_4_3_u04_r13_network.client[30] 	avg_time[30] 	0.004922196535
scalar tree_4_3_u04_r13_network.client[31] 	hdistance[31] 	3.0139538770053
scalar tree_4_3_u04_r13_network.client[31] 	downloads[31] 	11968
scalar tree_4_3_u04_r13_network.client[31] 	avg_time[31] 	0.004814502325
scalar tree_4_3_u04_r13_network.client[32] 	hdistance[32] 	2.9492042549682
scalar tree_4_3_u04_r13_network.client[32] 	downloads[32] 	12127
scalar tree_4_3_u04_r13_network.client[32] 	avg_time[32] 	0.004708174492
scalar tree_4_3_u04_r13_network.client[33] 	hdistance[33] 	2.9652847152847
scalar tree_4_3_u04_r13_network.client[33] 	downloads[33] 	12012
scalar tree_4_3_u04_r13_network.client[33] 	avg_time[33] 	0.004714041493
scalar tree_4_3_u04_r13_network.client[34] 	hdistance[34] 	2.9384615384615
scalar tree_4_3_u04_r13_network.client[34] 	downloads[34] 	12090
scalar tree_4_3_u04_r13_network.client[34] 	avg_time[34] 	0.004690423878
scalar tree_4_3_u04_r13_network.client[35] 	hdistance[35] 	3.0744850777638
scalar tree_4_3_u04_r13_network.client[35] 	downloads[35] 	11895
scalar tree_4_3_u04_r13_network.client[35] 	avg_time[35] 	0.004898038787
scalar tree_4_3_u04_r13_network.client[36] 	hdistance[36] 	3.064942624314
scalar tree_4_3_u04_r13_network.client[36] 	downloads[36] 	12026
scalar tree_4_3_u04_r13_network.client[36] 	avg_time[36] 	0.004880013652
scalar tree_4_3_u04_r13_network.client[37] 	hdistance[37] 	2.9477518211505
scalar tree_4_3_u04_r13_network.client[37] 	downloads[37] 	11943
scalar tree_4_3_u04_r13_network.client[37] 	avg_time[37] 	0.00468441469
scalar tree_4_3_u04_r13_network.client[38] 	hdistance[38] 	3.1193285690543
scalar tree_4_3_u04_r13_network.client[38] 	downloads[38] 	12034
scalar tree_4_3_u04_r13_network.client[38] 	avg_time[38] 	0.004876347343
scalar tree_4_3_u04_r13_network.client[39] 	hdistance[39] 	3.1222286326547
scalar tree_4_3_u04_r13_network.client[39] 	downloads[39] 	12133
scalar tree_4_3_u04_r13_network.client[39] 	avg_time[39] 	0.004878852464
