version 2
run General-84-20160819-16:11:20-23511
attr a 0.9
attr cd lce
attr configname General
attr cr lru
attr datetime 20160819-16:11:20
attr experiment General
attr fsize 1
attr inifile hw5115/scenario_A/NRR-LCE.ini
attr iterationvars "$name=tree_4_3, $un=04, $rep=5, $cd=lce, $cr=lru, $fsize=1, $a=0.9, $sl=nrr, $ttl=1000, $variance=0.05"
attr iterationvars2 "$name=tree_4_3, $un=04, $rep=5, $cd=lce, $cr=lru, $fsize=1, $a=0.9, $sl=nrr, $ttl=1000, $variance=0.05, $repetition=0"
attr measurement "$name=tree_4_3, $un=04, $rep=5, $cd=lce, $cr=lru, $fsize=1, $a=0.9, $sl=nrr, $ttl=1000, $variance=0.05"
attr name tree_4_3
attr network networks.${name}_u${un}_r${rep}_network
attr processid 23511
attr rep 5
attr repetition 0
attr replication #0
attr resultdir results
attr runnumber 84
attr seedset 5
attr sl nrr
attr ttl 1000
attr un 04
attr variance 0.05

scalar . 	a 	0.9
scalar . 	fsize 	1
scalar . 	rep 	5
scalar . 	ttl 	1000
scalar . 	un 	04
scalar . 	variance 	0.05
scalar tree_4_3_u04_r5_network.content_distribution 	repo-0 	0
scalar tree_4_3_u04_r5_network.content_distribution 	client-0 	13
scalar tree_4_3_u04_r5_network.content_distribution 	client-1 	14
scalar tree_4_3_u04_r5_network.content_distribution 	client-2 	15
scalar tree_4_3_u04_r5_network.content_distribution 	client-3 	16
scalar tree_4_3_u04_r5_network.content_distribution 	client-4 	17
scalar tree_4_3_u04_r5_network.content_distribution 	client-5 	18
scalar tree_4_3_u04_r5_network.content_distribution 	client-6 	19
scalar tree_4_3_u04_r5_network.content_distribution 	client-7 	20
scalar tree_4_3_u04_r5_network.content_distribution 	client-8 	21
scalar tree_4_3_u04_r5_network.content_distribution 	client-9 	22
scalar tree_4_3_u04_r5_network.content_distribution 	client-10 	23
scalar tree_4_3_u04_r5_network.content_distribution 	client-11 	24
scalar tree_4_3_u04_r5_network.content_distribution 	client-12 	25
scalar tree_4_3_u04_r5_network.content_distribution 	client-13 	26
scalar tree_4_3_u04_r5_network.content_distribution 	client-14 	27
scalar tree_4_3_u04_r5_network.content_distribution 	client-15 	28
scalar tree_4_3_u04_r5_network.content_distribution 	client-16 	29
scalar tree_4_3_u04_r5_network.content_distribution 	client-17 	30
scalar tree_4_3_u04_r5_network.content_distribution 	client-18 	31
scalar tree_4_3_u04_r5_network.content_distribution 	client-19 	32
scalar tree_4_3_u04_r5_network.content_distribution 	client-20 	33
scalar tree_4_3_u04_r5_network.content_distribution 	client-21 	34
scalar tree_4_3_u04_r5_network.content_distribution 	client-22 	35
scalar tree_4_3_u04_r5_network.content_distribution 	client-23 	36
scalar tree_4_3_u04_r5_network.content_distribution 	client-24 	37
scalar tree_4_3_u04_r5_network.content_distribution 	client-25 	38
scalar tree_4_3_u04_r5_network.content_distribution 	client-26 	39
scalar tree_4_3_u04_r5_network.content_distribution 	repo-0_card 	100000
scalar tree_4_3_u04_r5_network.content_distribution 	repo-0_price 	0
scalar tree_4_3_u04_r5_network.statistics 	stabilization_time 	481.7
scalar tree_4_3_u04_r5_network.statistics 	p_hit 	0.18992412389199
scalar tree_4_3_u04_r5_network.statistics 	interests 	27749.45
scalar tree_4_3_u04_r5_network.statistics 	data 	19639.025
scalar tree_4_3_u04_r5_network.statistics 	hdistance 	3.0507220040788
scalar tree_4_3_u04_r5_network.statistics 	avg_time 	0.004842596011
scalar tree_4_3_u04_r5_network.statistics 	downloads 	324402
scalar tree_4_3_u04_r5_network.statistics 	total_cost 	0
scalar tree_4_3_u04_r5_network.statistics 	total_replicas 	100000
scalar tree_4_3_u04_r5_network.statistics 	inner_hit 	0.3705649163692
scalar tree_4_3_u04_r5_network.node[0].core_layer 	interests[0] 	205131
scalar tree_4_3_u04_r5_network.node[0].core_layer 	repo_load[0] 	204190
scalar tree_4_3_u04_r5_network.node[0].core_layer 	data[0] 	0
scalar tree_4_3_u04_r5_network.node[0].core_layer 	repo_int[0] 	204190
scalar tree_4_3_u04_r5_network.node[0].content_store 	p_hit[0] 	0.0045873124978672
scalar tree_4_3_u04_r5_network.node[0].content_store 	hits[0] 	941
scalar tree_4_3_u04_r5_network.node[0].content_store 	misses[0] 	204190
scalar tree_4_3_u04_r5_network.node[0].content_store 	decision_yes[0] 	204190
scalar tree_4_3_u04_r5_network.node[0].content_store 	decision_no[0] 	0
scalar tree_4_3_u04_r5_network.node[0].content_store 	decision_ratio[0] 	1
scalar tree_4_3_u04_r5_network.node[1].core_layer 	interests[1] 	107473
scalar tree_4_3_u04_r5_network.node[1].core_layer 	data[1] 	106523
scalar tree_4_3_u04_r5_network.node[1].content_store 	p_hit[1] 	0.0087929061252594
scalar tree_4_3_u04_r5_network.node[1].content_store 	hits[1] 	945
scalar tree_4_3_u04_r5_network.node[1].content_store 	misses[1] 	106528
scalar tree_4_3_u04_r5_network.node[1].content_store 	decision_yes[1] 	106508
scalar tree_4_3_u04_r5_network.node[1].content_store 	decision_no[1] 	0
scalar tree_4_3_u04_r5_network.node[1].content_store 	decision_ratio[1] 	1
scalar tree_4_3_u04_r5_network.node[2].core_layer 	interests[2] 	80696
scalar tree_4_3_u04_r5_network.node[2].core_layer 	data[2] 	79310
scalar tree_4_3_u04_r5_network.node[2].content_store 	p_hit[2] 	0.01713839595519
scalar tree_4_3_u04_r5_network.node[2].content_store 	hits[2] 	1383
scalar tree_4_3_u04_r5_network.node[2].content_store 	misses[2] 	79313
scalar tree_4_3_u04_r5_network.node[2].content_store 	decision_yes[2] 	79306
scalar tree_4_3_u04_r5_network.node[2].content_store 	decision_no[2] 	0
scalar tree_4_3_u04_r5_network.node[2].content_store 	decision_ratio[2] 	1
scalar tree_4_3_u04_r5_network.node[3].core_layer 	interests[3] 	50072
scalar tree_4_3_u04_r5_network.node[3].core_layer 	data[3] 	48581
scalar tree_4_3_u04_r5_network.node[3].content_store 	p_hit[3] 	0.029737178463013
scalar tree_4_3_u04_r5_network.node[3].content_store 	hits[3] 	1489
scalar tree_4_3_u04_r5_network.node[3].content_store 	misses[3] 	48583
scalar tree_4_3_u04_r5_network.node[3].content_store 	decision_yes[3] 	48575
scalar tree_4_3_u04_r5_network.node[3].content_store 	decision_no[3] 	0
scalar tree_4_3_u04_r5_network.node[3].content_store 	decision_ratio[3] 	1
scalar tree_4_3_u04_r5_network.node[4].core_layer 	interests[4] 	39476
scalar tree_4_3_u04_r5_network.node[4].core_layer 	data[4] 	37885
scalar tree_4_3_u04_r5_network.node[4].content_store 	p_hit[4] 	0.040252305198095
scalar tree_4_3_u04_r5_network.node[4].content_store 	hits[4] 	1589
scalar tree_4_3_u04_r5_network.node[4].content_store 	misses[4] 	37887
scalar tree_4_3_u04_r5_network.node[4].content_store 	decision_yes[4] 	37882
scalar tree_4_3_u04_r5_network.node[4].content_store 	decision_no[4] 	0
scalar tree_4_3_u04_r5_network.node[4].content_store 	decision_ratio[4] 	1
scalar tree_4_3_u04_r5_network.node[5].core_layer 	interests[5] 	20412
scalar tree_4_3_u04_r5_network.node[5].core_layer 	data[5] 	19071
scalar tree_4_3_u04_r5_network.node[5].content_store 	p_hit[5] 	0.065647658240251
scalar tree_4_3_u04_r5_network.node[5].content_store 	hits[5] 	1340
scalar tree_4_3_u04_r5_network.node[5].content_store 	misses[5] 	19072
scalar tree_4_3_u04_r5_network.node[5].content_store 	decision_yes[5] 	19069
scalar tree_4_3_u04_r5_network.node[5].content_store 	decision_no[5] 	0
scalar tree_4_3_u04_r5_network.node[5].content_store 	decision_ratio[5] 	1
scalar tree_4_3_u04_r5_network.node[6].core_layer 	interests[6] 	40350
scalar tree_4_3_u04_r5_network.node[6].core_layer 	data[6] 	35970
scalar tree_4_3_u04_r5_network.node[6].content_store 	p_hit[6] 	0.10847583643123
scalar tree_4_3_u04_r5_network.node[6].content_store 	hits[6] 	4377
scalar tree_4_3_u04_r5_network.node[6].content_store 	misses[6] 	35973
scalar tree_4_3_u04_r5_network.node[6].content_store 	decision_yes[6] 	35965
scalar tree_4_3_u04_r5_network.node[6].content_store 	decision_no[6] 	0
scalar tree_4_3_u04_r5_network.node[6].content_store 	decision_ratio[6] 	1
scalar tree_4_3_u04_r5_network.node[7].core_layer 	interests[7] 	46272
scalar tree_4_3_u04_r5_network.node[7].core_layer 	data[7] 	42750
scalar tree_4_3_u04_r5_network.node[7].content_store 	p_hit[7] 	0.076028699861687
scalar tree_4_3_u04_r5_network.node[7].content_store 	hits[7] 	3518
scalar tree_4_3_u04_r5_network.node[7].content_store 	misses[7] 	42754
scalar tree_4_3_u04_r5_network.node[7].content_store 	decision_yes[7] 	42746
scalar tree_4_3_u04_r5_network.node[7].content_store 	decision_no[7] 	0
scalar tree_4_3_u04_r5_network.node[7].content_store 	decision_ratio[7] 	1
scalar tree_4_3_u04_r5_network.node[8].core_layer 	interests[8] 	22858
scalar tree_4_3_u04_r5_network.node[8].core_layer 	data[8] 	20880
scalar tree_4_3_u04_r5_network.node[8].content_store 	p_hit[8] 	0.086490506606002
scalar tree_4_3_u04_r5_network.node[8].content_store 	hits[8] 	1977
scalar tree_4_3_u04_r5_network.node[8].content_store 	misses[8] 	20881
scalar tree_4_3_u04_r5_network.node[8].content_store 	decision_yes[8] 	20880
scalar tree_4_3_u04_r5_network.node[8].content_store 	decision_no[8] 	0
scalar tree_4_3_u04_r5_network.node[8].content_store 	decision_ratio[8] 	1
scalar tree_4_3_u04_r5_network.node[9].core_layer 	interests[9] 	32223
scalar tree_4_3_u04_r5_network.node[9].core_layer 	data[9] 	30646
scalar tree_4_3_u04_r5_network.node[9].content_store 	p_hit[9] 	0.048909164261552
scalar tree_4_3_u04_r5_network.node[9].content_store 	hits[9] 	1576
scalar tree_4_3_u04_r5_network.node[9].content_store 	misses[9] 	30647
scalar tree_4_3_u04_r5_network.node[9].content_store 	decision_yes[9] 	30645
scalar tree_4_3_u04_r5_network.node[9].content_store 	decision_no[9] 	0
scalar tree_4_3_u04_r5_network.node[9].content_store 	decision_ratio[9] 	1
scalar tree_4_3_u04_r5_network.node[10].core_layer 	interests[10] 	21957
scalar tree_4_3_u04_r5_network.node[10].core_layer 	data[10] 	20707
scalar tree_4_3_u04_r5_network.node[10].content_store 	p_hit[10] 	0.056929453021815
scalar tree_4_3_u04_r5_network.node[10].content_store 	hits[10] 	1250
scalar tree_4_3_u04_r5_network.node[10].content_store 	misses[10] 	20707
scalar tree_4_3_u04_r5_network.node[10].content_store 	decision_yes[10] 	20707
scalar tree_4_3_u04_r5_network.node[10].content_store 	decision_no[10] 	0
scalar tree_4_3_u04_r5_network.node[10].content_store 	decision_ratio[10] 	1
scalar tree_4_3_u04_r5_network.node[11].core_layer 	interests[11] 	43486
scalar tree_4_3_u04_r5_network.node[11].core_layer 	data[11] 	40383
scalar tree_4_3_u04_r5_network.node[11].content_store 	p_hit[11] 	0.071287310858667
scalar tree_4_3_u04_r5_network.node[11].content_store 	hits[11] 	3100
scalar tree_4_3_u04_r5_network.node[11].content_store 	misses[11] 	40386
scalar tree_4_3_u04_r5_network.node[11].content_store 	decision_yes[11] 	40380
scalar tree_4_3_u04_r5_network.node[11].content_store 	decision_no[11] 	0
scalar tree_4_3_u04_r5_network.node[11].content_store 	decision_ratio[11] 	1
scalar tree_4_3_u04_r5_network.node[12].core_layer 	interests[12] 	33691
scalar tree_4_3_u04_r5_network.node[12].core_layer 	data[12] 	31414
scalar tree_4_3_u04_r5_network.node[12].content_store 	p_hit[12] 	0.067495770383782
scalar tree_4_3_u04_r5_network.node[12].content_store 	hits[12] 	2274
scalar tree_4_3_u04_r5_network.node[12].content_store 	misses[12] 	31417
scalar tree_4_3_u04_r5_network.node[12].content_store 	decision_yes[12] 	31409
scalar tree_4_3_u04_r5_network.node[12].content_store 	decision_no[12] 	0
scalar tree_4_3_u04_r5_network.node[12].content_store 	decision_ratio[12] 	1
scalar tree_4_3_u04_r5_network.node[13].core_layer 	interests[13] 	12864
scalar tree_4_3_u04_r5_network.node[13].core_layer 	data[13] 	9994
scalar tree_4_3_u04_r5_network.node[13].content_store 	p_hit[13] 	0.22310323383085
scalar tree_4_3_u04_r5_network.node[13].content_store 	hits[13] 	2870
scalar tree_4_3_u04_r5_network.node[13].content_store 	misses[13] 	9994
scalar tree_4_3_u04_r5_network.node[13].content_store 	decision_yes[13] 	9994
scalar tree_4_3_u04_r5_network.node[13].content_store 	decision_no[13] 	0
scalar tree_4_3_u04_r5_network.node[13].content_store 	decision_ratio[13] 	1
scalar tree_4_3_u04_r5_network.node[14].core_layer 	interests[14] 	12929
scalar tree_4_3_u04_r5_network.node[14].core_layer 	data[14] 	9969
scalar tree_4_3_u04_r5_network.node[14].content_store 	p_hit[14] 	0.22894268698275
scalar tree_4_3_u04_r5_network.node[14].content_store 	hits[14] 	2960
scalar tree_4_3_u04_r5_network.node[14].content_store 	misses[14] 	9969
scalar tree_4_3_u04_r5_network.node[14].content_store 	decision_yes[14] 	9969
scalar tree_4_3_u04_r5_network.node[14].content_store 	decision_no[14] 	0
scalar tree_4_3_u04_r5_network.node[14].content_store 	decision_ratio[14] 	1
scalar tree_4_3_u04_r5_network.node[15].core_layer 	interests[15] 	14961
scalar tree_4_3_u04_r5_network.node[15].core_layer 	data[15] 	9936
scalar tree_4_3_u04_r5_network.node[15].content_store 	p_hit[15] 	0.33587327050331
scalar tree_4_3_u04_r5_network.node[15].content_store 	hits[15] 	5025
scalar tree_4_3_u04_r5_network.node[15].content_store 	misses[15] 	9936
scalar tree_4_3_u04_r5_network.node[15].content_store 	decision_yes[15] 	9936
scalar tree_4_3_u04_r5_network.node[15].content_store 	decision_no[15] 	0
scalar tree_4_3_u04_r5_network.node[15].content_store 	decision_ratio[15] 	1
scalar tree_4_3_u04_r5_network.node[16].core_layer 	interests[16] 	13411
scalar tree_4_3_u04_r5_network.node[16].core_layer 	data[16] 	9835
scalar tree_4_3_u04_r5_network.node[16].content_store 	p_hit[16] 	0.26657221683692
scalar tree_4_3_u04_r5_network.node[16].content_store 	hits[16] 	3575
scalar tree_4_3_u04_r5_network.node[16].content_store 	misses[16] 	9836
scalar tree_4_3_u04_r5_network.node[16].content_store 	decision_yes[16] 	9835
scalar tree_4_3_u04_r5_network.node[16].content_store 	decision_no[16] 	0
scalar tree_4_3_u04_r5_network.node[16].content_store 	decision_ratio[16] 	1
scalar tree_4_3_u04_r5_network.node[17].core_layer 	interests[17] 	12631
scalar tree_4_3_u04_r5_network.node[17].core_layer 	data[17] 	10193
scalar tree_4_3_u04_r5_network.node[17].content_store 	p_hit[17] 	0.19301717995408
scalar tree_4_3_u04_r5_network.node[17].content_store 	hits[17] 	2438
scalar tree_4_3_u04_r5_network.node[17].content_store 	misses[17] 	10193
scalar tree_4_3_u04_r5_network.node[17].content_store 	decision_yes[17] 	10193
scalar tree_4_3_u04_r5_network.node[17].content_store 	decision_no[17] 	0
scalar tree_4_3_u04_r5_network.node[17].content_store 	decision_ratio[17] 	1
scalar tree_4_3_u04_r5_network.node[18].core_layer 	interests[18] 	14514
scalar tree_4_3_u04_r5_network.node[18].core_layer 	data[18] 	10083
scalar tree_4_3_u04_r5_network.node[18].content_store 	p_hit[18] 	0.30529144274494
scalar tree_4_3_u04_r5_network.node[18].content_store 	hits[18] 	4431
scalar tree_4_3_u04_r5_network.node[18].content_store 	misses[18] 	10083
scalar tree_4_3_u04_r5_network.node[18].content_store 	decision_yes[18] 	10083
scalar tree_4_3_u04_r5_network.node[18].content_store 	decision_no[18] 	0
scalar tree_4_3_u04_r5_network.node[18].content_store 	decision_ratio[18] 	1
scalar tree_4_3_u04_r5_network.node[19].core_layer 	interests[19] 	13803
scalar tree_4_3_u04_r5_network.node[19].core_layer 	data[19] 	10147
scalar tree_4_3_u04_r5_network.node[19].content_store 	p_hit[19] 	0.26479750778816
scalar tree_4_3_u04_r5_network.node[19].content_store 	hits[19] 	3655
scalar tree_4_3_u04_r5_network.node[19].content_store 	misses[19] 	10148
scalar tree_4_3_u04_r5_network.node[19].content_store 	decision_yes[19] 	10147
scalar tree_4_3_u04_r5_network.node[19].content_store 	decision_no[19] 	0
scalar tree_4_3_u04_r5_network.node[19].content_store 	decision_ratio[19] 	1
scalar tree_4_3_u04_r5_network.node[20].core_layer 	interests[20] 	13742
scalar tree_4_3_u04_r5_network.node[20].core_layer 	data[20] 	10142
scalar tree_4_3_u04_r5_network.node[20].content_store 	p_hit[20] 	0.26197060107699
scalar tree_4_3_u04_r5_network.node[20].content_store 	hits[20] 	3600
scalar tree_4_3_u04_r5_network.node[20].content_store 	misses[20] 	10142
scalar tree_4_3_u04_r5_network.node[20].content_store 	decision_yes[20] 	10142
scalar tree_4_3_u04_r5_network.node[20].content_store 	decision_no[20] 	0
scalar tree_4_3_u04_r5_network.node[20].content_store 	decision_ratio[20] 	1
scalar tree_4_3_u04_r5_network.node[21].core_layer 	interests[21] 	13881
scalar tree_4_3_u04_r5_network.node[21].core_layer 	data[21] 	10203
scalar tree_4_3_u04_r5_network.node[21].content_store 	p_hit[21] 	0.26489446005331
scalar tree_4_3_u04_r5_network.node[21].content_store 	hits[21] 	3677
scalar tree_4_3_u04_r5_network.node[21].content_store 	misses[21] 	10204
scalar tree_4_3_u04_r5_network.node[21].content_store 	decision_yes[21] 	10203
scalar tree_4_3_u04_r5_network.node[21].content_store 	decision_no[21] 	0
scalar tree_4_3_u04_r5_network.node[21].content_store 	decision_ratio[21] 	1
scalar tree_4_3_u04_r5_network.node[22].core_layer 	interests[22] 	14047
scalar tree_4_3_u04_r5_network.node[22].core_layer 	data[22] 	10275
scalar tree_4_3_u04_r5_network.node[22].content_store 	p_hit[22] 	0.26845589805652
scalar tree_4_3_u04_r5_network.node[22].content_store 	hits[22] 	3771
scalar tree_4_3_u04_r5_network.node[22].content_store 	misses[22] 	10276
scalar tree_4_3_u04_r5_network.node[22].content_store 	decision_yes[22] 	10275
scalar tree_4_3_u04_r5_network.node[22].content_store 	decision_no[22] 	0
scalar tree_4_3_u04_r5_network.node[22].content_store 	decision_ratio[22] 	1
scalar tree_4_3_u04_r5_network.node[23].core_layer 	interests[23] 	13721
scalar tree_4_3_u04_r5_network.node[23].core_layer 	data[23] 	10043
scalar tree_4_3_u04_r5_network.node[23].content_store 	p_hit[23] 	0.26812914510604
scalar tree_4_3_u04_r5_network.node[23].content_store 	hits[23] 	3679
scalar tree_4_3_u04_r5_network.node[23].content_store 	misses[23] 	10042
scalar tree_4_3_u04_r5_network.node[23].content_store 	decision_yes[23] 	10043
scalar tree_4_3_u04_r5_network.node[23].content_store 	decision_no[23] 	0
scalar tree_4_3_u04_r5_network.node[23].content_store 	decision_ratio[23] 	1
scalar tree_4_3_u04_r5_network.node[24].core_layer 	interests[24] 	13810
scalar tree_4_3_u04_r5_network.node[24].core_layer 	data[24] 	10102
scalar tree_4_3_u04_r5_network.node[24].content_store 	p_hit[24] 	0.26850108616944
scalar tree_4_3_u04_r5_network.node[24].content_store 	hits[24] 	3708
scalar tree_4_3_u04_r5_network.node[24].content_store 	misses[24] 	10102
scalar tree_4_3_u04_r5_network.node[24].content_store 	decision_yes[24] 	10102
scalar tree_4_3_u04_r5_network.node[24].content_store 	decision_no[24] 	0
scalar tree_4_3_u04_r5_network.node[24].content_store 	decision_ratio[24] 	1
scalar tree_4_3_u04_r5_network.node[25].core_layer 	interests[25] 	14871
scalar tree_4_3_u04_r5_network.node[25].core_layer 	data[25] 	9941
scalar tree_4_3_u04_r5_network.node[25].content_store 	p_hit[25] 	0.3315177190505
scalar tree_4_3_u04_r5_network.node[25].content_store 	hits[25] 	4930
scalar tree_4_3_u04_r5_network.node[25].content_store 	misses[25] 	9941
scalar tree_4_3_u04_r5_network.node[25].content_store 	decision_yes[25] 	9941
scalar tree_4_3_u04_r5_network.node[25].content_store 	decision_no[25] 	0
scalar tree_4_3_u04_r5_network.node[25].content_store 	decision_ratio[25] 	1
scalar tree_4_3_u04_r5_network.node[26].core_layer 	interests[26] 	13023
scalar tree_4_3_u04_r5_network.node[26].core_layer 	data[26] 	10369
scalar tree_4_3_u04_r5_network.node[26].content_store 	p_hit[26] 	0.20363971435153
scalar tree_4_3_u04_r5_network.node[26].content_store 	hits[26] 	2652
scalar tree_4_3_u04_r5_network.node[26].content_store 	misses[26] 	10371
scalar tree_4_3_u04_r5_network.node[26].content_store 	decision_yes[26] 	10369
scalar tree_4_3_u04_r5_network.node[26].content_store 	decision_no[26] 	0
scalar tree_4_3_u04_r5_network.node[26].content_store 	decision_ratio[26] 	1
scalar tree_4_3_u04_r5_network.node[27].core_layer 	interests[27] 	12794
scalar tree_4_3_u04_r5_network.node[27].core_layer 	data[27] 	10089
scalar tree_4_3_u04_r5_network.node[27].content_store 	p_hit[27] 	0.21142723151477
scalar tree_4_3_u04_r5_network.node[27].content_store 	hits[27] 	2705
scalar tree_4_3_u04_r5_network.node[27].content_store 	misses[27] 	10089
scalar tree_4_3_u04_r5_network.node[27].content_store 	decision_yes[27] 	10089
scalar tree_4_3_u04_r5_network.node[27].content_store 	decision_no[27] 	0
scalar tree_4_3_u04_r5_network.node[27].content_store 	decision_ratio[27] 	1
scalar tree_4_3_u04_r5_network.node[28].core_layer 	interests[28] 	12972
scalar tree_4_3_u04_r5_network.node[28].core_layer 	data[28] 	10059
scalar tree_4_3_u04_r5_network.node[28].content_store 	p_hit[28] 	0.22448350292939
scalar tree_4_3_u04_r5_network.node[28].content_store 	hits[28] 	2912
scalar tree_4_3_u04_r5_network.node[28].content_store 	misses[28] 	10060
scalar tree_4_3_u04_r5_network.node[28].content_store 	decision_yes[28] 	10059
scalar tree_4_3_u04_r5_network.node[28].content_store 	decision_no[28] 	0
scalar tree_4_3_u04_r5_network.node[28].content_store 	decision_ratio[28] 	1
scalar tree_4_3_u04_r5_network.node[29].core_layer 	interests[29] 	12986
scalar tree_4_3_u04_r5_network.node[29].core_layer 	data[29] 	10015
scalar tree_4_3_u04_r5_network.node[29].content_store 	p_hit[29] 	0.22878484521793
scalar tree_4_3_u04_r5_network.node[29].content_store 	hits[29] 	2971
scalar tree_4_3_u04_r5_network.node[29].content_store 	misses[29] 	10015
scalar tree_4_3_u04_r5_network.node[29].content_store 	decision_yes[29] 	10015
scalar tree_4_3_u04_r5_network.node[29].content_store 	decision_no[29] 	0
scalar tree_4_3_u04_r5_network.node[29].content_store 	decision_ratio[29] 	1
scalar tree_4_3_u04_r5_network.node[30].core_layer 	interests[30] 	13059
scalar tree_4_3_u04_r5_network.node[30].core_layer 	data[30] 	10055
scalar tree_4_3_u04_r5_network.node[30].content_store 	p_hit[30] 	0.23003292748296
scalar tree_4_3_u04_r5_network.node[30].content_store 	hits[30] 	3004
scalar tree_4_3_u04_r5_network.node[30].content_store 	misses[30] 	10055
scalar tree_4_3_u04_r5_network.node[30].content_store 	decision_yes[30] 	10055
scalar tree_4_3_u04_r5_network.node[30].content_store 	decision_no[30] 	0
scalar tree_4_3_u04_r5_network.node[30].content_store 	decision_ratio[30] 	1
scalar tree_4_3_u04_r5_network.node[31].core_layer 	interests[31] 	12819
scalar tree_4_3_u04_r5_network.node[31].core_layer 	data[31] 	10202
scalar tree_4_3_u04_r5_network.node[31].content_store 	p_hit[31] 	0.20415008971059
scalar tree_4_3_u04_r5_network.node[31].content_store 	hits[31] 	2617
scalar tree_4_3_u04_r5_network.node[31].content_store 	misses[31] 	10202
scalar tree_4_3_u04_r5_network.node[31].content_store 	decision_yes[31] 	10202
scalar tree_4_3_u04_r5_network.node[31].content_store 	decision_no[31] 	0
scalar tree_4_3_u04_r5_network.node[31].content_store 	decision_ratio[31] 	1
scalar tree_4_3_u04_r5_network.node[32].core_layer 	interests[32] 	14499
scalar tree_4_3_u04_r5_network.node[32].core_layer 	data[32] 	10099
scalar tree_4_3_u04_r5_network.node[32].content_store 	p_hit[32] 	0.30346920477274
scalar tree_4_3_u04_r5_network.node[32].content_store 	hits[32] 	4400
scalar tree_4_3_u04_r5_network.node[32].content_store 	misses[32] 	10099
scalar tree_4_3_u04_r5_network.node[32].content_store 	decision_yes[32] 	10099
scalar tree_4_3_u04_r5_network.node[32].content_store 	decision_no[32] 	0
scalar tree_4_3_u04_r5_network.node[32].content_store 	decision_ratio[32] 	1
scalar tree_4_3_u04_r5_network.node[33].core_layer 	interests[33] 	13813
scalar tree_4_3_u04_r5_network.node[33].core_layer 	data[33] 	10079
scalar tree_4_3_u04_r5_network.node[33].content_store 	p_hit[33] 	0.27032505610657
scalar tree_4_3_u04_r5_network.node[33].content_store 	hits[33] 	3734
scalar tree_4_3_u04_r5_network.node[33].content_store 	misses[33] 	10079
scalar tree_4_3_u04_r5_network.node[33].content_store 	decision_yes[33] 	10079
scalar tree_4_3_u04_r5_network.node[33].content_store 	decision_no[33] 	0
scalar tree_4_3_u04_r5_network.node[33].content_store 	decision_ratio[33] 	1
scalar tree_4_3_u04_r5_network.node[34].core_layer 	interests[34] 	13515
scalar tree_4_3_u04_r5_network.node[34].core_layer 	data[34] 	9938
scalar tree_4_3_u04_r5_network.node[34].content_store 	p_hit[34] 	0.2645209027007
scalar tree_4_3_u04_r5_network.node[34].content_store 	hits[34] 	3575
scalar tree_4_3_u04_r5_network.node[34].content_store 	misses[34] 	9940
scalar tree_4_3_u04_r5_network.node[34].content_store 	decision_yes[34] 	9938
scalar tree_4_3_u04_r5_network.node[34].content_store 	decision_no[34] 	0
scalar tree_4_3_u04_r5_network.node[34].content_store 	decision_ratio[34] 	1
scalar tree_4_3_u04_r5_network.node[35].core_layer 	interests[35] 	13417
scalar tree_4_3_u04_r5_network.node[35].core_layer 	data[35] 	9818
scalar tree_4_3_u04_r5_network.node[35].content_store 	p_hit[35] 	0.26816725050309
scalar tree_4_3_u04_r5_network.node[35].content_store 	hits[35] 	3598
scalar tree_4_3_u04_r5_network.node[35].content_store 	misses[35] 	9819
scalar tree_4_3_u04_r5_network.node[35].content_store 	decision_yes[35] 	9818
scalar tree_4_3_u04_r5_network.node[35].content_store 	decision_no[35] 	0
scalar tree_4_3_u04_r5_network.node[35].content_store 	decision_ratio[35] 	1
scalar tree_4_3_u04_r5_network.node[36].core_layer 	interests[36] 	14808
scalar tree_4_3_u04_r5_network.node[36].core_layer 	data[36] 	9765
scalar tree_4_3_u04_r5_network.node[36].content_store 	p_hit[36] 	0.34049162614803
scalar tree_4_3_u04_r5_network.node[36].content_store 	hits[36] 	5042
scalar tree_4_3_u04_r5_network.node[36].content_store 	misses[36] 	9766
scalar tree_4_3_u04_r5_network.node[36].content_store 	decision_yes[36] 	9765
scalar tree_4_3_u04_r5_network.node[36].content_store 	decision_no[36] 	0
scalar tree_4_3_u04_r5_network.node[36].content_store 	decision_ratio[36] 	1
scalar tree_4_3_u04_r5_network.node[37].core_layer 	interests[37] 	13000
scalar tree_4_3_u04_r5_network.node[37].core_layer 	data[37] 	10062
scalar tree_4_3_u04_r5_network.node[37].content_store 	p_hit[37] 	0.22584615384615
scalar tree_4_3_u04_r5_network.node[37].content_store 	hits[37] 	2936
scalar tree_4_3_u04_r5_network.node[37].content_store 	misses[37] 	10064
scalar tree_4_3_u04_r5_network.node[37].content_store 	decision_yes[37] 	10062
scalar tree_4_3_u04_r5_network.node[37].content_store 	decision_no[37] 	0
scalar tree_4_3_u04_r5_network.node[37].content_store 	decision_ratio[37] 	1
scalar tree_4_3_u04_r5_network.node[38].core_layer 	interests[38] 	13070
scalar tree_4_3_u04_r5_network.node[38].core_layer 	data[38] 	10086
scalar tree_4_3_u04_r5_network.node[38].content_store 	p_hit[38] 	0.22823259372609
scalar tree_4_3_u04_r5_network.node[38].content_store 	hits[38] 	2983
scalar tree_4_3_u04_r5_network.node[38].content_store 	misses[38] 	10087
scalar tree_4_3_u04_r5_network.node[38].content_store 	decision_yes[38] 	10086
scalar tree_4_3_u04_r5_network.node[38].content_store 	decision_no[38] 	0
scalar tree_4_3_u04_r5_network.node[38].content_store 	decision_ratio[38] 	1
scalar tree_4_3_u04_r5_network.node[39].core_layer 	interests[39] 	12921
scalar tree_4_3_u04_r5_network.node[39].core_layer 	data[39] 	9942
scalar tree_4_3_u04_r5_network.node[39].content_store 	p_hit[39] 	0.23055491061063
scalar tree_4_3_u04_r5_network.node[39].content_store 	hits[39] 	2979
scalar tree_4_3_u04_r5_network.node[39].content_store 	misses[39] 	9942
scalar tree_4_3_u04_r5_network.node[39].content_store 	decision_yes[39] 	9942
scalar tree_4_3_u04_r5_network.node[39].content_store 	decision_no[39] 	0
scalar tree_4_3_u04_r5_network.node[39].content_store 	decision_ratio[39] 	1
scalar tree_4_3_u04_r5_network.client[13] 	hdistance[13] 	3.0913288004701
scalar tree_4_3_u04_r5_network.client[13] 	downloads[13] 	11913
scalar tree_4_3_u04_r5_network.client[13] 	avg_time[13] 	0.004881387081
scalar tree_4_3_u04_r5_network.client[14] 	hdistance[14] 	3.0721649484536
scalar tree_4_3_u04_r5_network.client[14] 	downloads[14] 	11931
scalar tree_4_3_u04_r5_network.client[14] 	avg_time[14] 	0.004861450376
scalar tree_4_3_u04_r5_network.client[15] 	hdistance[15] 	2.920881321983
scalar tree_4_3_u04_r5_network.client[15] 	downloads[15] 	11982
scalar tree_4_3_u04_r5_network.client[15] 	avg_time[15] 	0.004640550186
scalar tree_4_3_u04_r5_network.client[16] 	hdistance[16] 	3.0484187196317
scalar tree_4_3_u04_r5_network.client[16] 	downloads[16] 	11731
scalar tree_4_3_u04_r5_network.client[16] 	avg_time[16] 	0.00478001662
scalar tree_4_3_u04_r5_network.client[17] 	hdistance[17] 	3.1498718690585
scalar tree_4_3_u04_r5_network.client[17] 	downloads[17] 	12097
scalar tree_4_3_u04_r5_network.client[17] 	avg_time[17] 	0.004981893315
scalar tree_4_3_u04_r5_network.client[18] 	hdistance[18] 	2.987561566074
scalar tree_4_3_u04_r5_network.client[18] 	downloads[18] 	11979
scalar tree_4_3_u04_r5_network.client[18] 	avg_time[18] 	0.004754686349
scalar tree_4_3_u04_r5_network.client[19] 	hdistance[19] 	3.0034596375618
scalar tree_4_3_u04_r5_network.client[19] 	downloads[19] 	12140
scalar tree_4_3_u04_r5_network.client[19] 	avg_time[19] 	0.004797586531
scalar tree_4_3_u04_r5_network.client[20] 	hdistance[20] 	3.0144341801386
scalar tree_4_3_u04_r5_network.client[20] 	downloads[20] 	12124
scalar tree_4_3_u04_r5_network.client[20] 	avg_time[20] 	0.004805665136
scalar tree_4_3_u04_r5_network.client[21] 	hdistance[21] 	3.0082678454486
scalar tree_4_3_u04_r5_network.client[21] 	downloads[21] 	12216
scalar tree_4_3_u04_r5_network.client[21] 	avg_time[21] 	0.004801482284
scalar tree_4_3_u04_r5_network.client[22] 	hdistance[22] 	3.0408146639511
scalar tree_4_3_u04_r5_network.client[22] 	downloads[22] 	12275
scalar tree_4_3_u04_r5_network.client[22] 	avg_time[22] 	0.004856169451
scalar tree_4_3_u04_r5_network.client[23] 	hdistance[23] 	3.0507963118189
scalar tree_4_3_u04_r5_network.client[23] 	downloads[23] 	11930
scalar tree_4_3_u04_r5_network.client[23] 	avg_time[23] 	0.004889183949
scalar tree_4_3_u04_r5_network.client[24] 	hdistance[24] 	3.0589260519545
scalar tree_4_3_u04_r5_network.client[24] 	downloads[24] 	12049
scalar tree_4_3_u04_r5_network.client[24] 	avg_time[24] 	0.004887836314
scalar tree_4_3_u04_r5_network.client[25] 	hdistance[25] 	2.9715738579526
scalar tree_4_3_u04_r5_network.client[25] 	downloads[25] 	11996
scalar tree_4_3_u04_r5_network.client[25] 	avg_time[25] 	0.004723622245
scalar tree_4_3_u04_r5_network.client[26] 	hdistance[26] 	3.1315192743764
scalar tree_4_3_u04_r5_network.client[26] 	downloads[26] 	12348
scalar tree_4_3_u04_r5_network.client[26] 	avg_time[26] 	0.004960312138
scalar tree_4_3_u04_r5_network.client[27] 	hdistance[27] 	3.1042148760331
scalar tree_4_3_u04_r5_network.client[27] 	downloads[27] 	12100
scalar tree_4_3_u04_r5_network.client[27] 	avg_time[27] 	0.004918215719
scalar tree_4_3_u04_r5_network.client[28] 	hdistance[28] 	3.1262297815574
scalar tree_4_3_u04_r5_network.client[28] 	downloads[28] 	11994
scalar tree_4_3_u04_r5_network.client[28] 	avg_time[28] 	0.004950318508
scalar tree_4_3_u04_r5_network.client[29] 	hdistance[29] 	3.1164692140831
scalar tree_4_3_u04_r5_network.client[29] 	downloads[29] 	11986
scalar tree_4_3_u04_r5_network.client[29] 	avg_time[29] 	0.004933793663
scalar tree_4_3_u04_r5_network.client[30] 	hdistance[30] 	3.1297004991681
scalar tree_4_3_u04_r5_network.client[30] 	downloads[30] 	12020
scalar tree_4_3_u04_r5_network.client[30] 	avg_time[30] 	0.004951744102
scalar tree_4_3_u04_r5_network.client[31] 	hdistance[31] 	3.1143769444899
scalar tree_4_3_u04_r5_network.client[31] 	downloads[31] 	12214
scalar tree_4_3_u04_r5_network.client[31] 	avg_time[31] 	0.004948002147
scalar tree_4_3_u04_r5_network.client[32] 	hdistance[32] 	2.9935494541846
scalar tree_4_3_u04_r5_network.client[32] 	downloads[32] 	12092
scalar tree_4_3_u04_r5_network.client[32] 	avg_time[32] 	0.004770553388
scalar tree_4_3_u04_r5_network.client[33] 	hdistance[33] 	2.9914163090129
scalar tree_4_3_u04_r5_network.client[33] 	downloads[33] 	12116
scalar tree_4_3_u04_r5_network.client[33] 	avg_time[33] 	0.004695936214
scalar tree_4_3_u04_r5_network.client[34] 	hdistance[34] 	3.0470628068393
scalar tree_4_3_u04_r5_network.client[34] 	downloads[34] 	11814
scalar tree_4_3_u04_r5_network.client[34] 	avg_time[34] 	0.004884047772
scalar tree_4_3_u04_r5_network.client[35] 	hdistance[35] 	3.0460829493088
scalar tree_4_3_u04_r5_network.client[35] 	downloads[35] 	11718
scalar tree_4_3_u04_r5_network.client[35] 	avg_time[35] 	0.004876309381
scalar tree_4_3_u04_r5_network.client[36] 	hdistance[36] 	2.9520774917155
scalar tree_4_3_u04_r5_network.client[36] 	downloads[36] 	11769
scalar tree_4_3_u04_r5_network.client[36] 	avg_time[36] 	0.004690062767
scalar tree_4_3_u04_r5_network.client[37] 	hdistance[37] 	3.0598782420149
scalar tree_4_3_u04_r5_network.client[37] 	downloads[37] 	11991
scalar tree_4_3_u04_r5_network.client[37] 	avg_time[37] 	0.00482501267
scalar tree_4_3_u04_r5_network.client[38] 	hdistance[38] 	3.0620328849028
scalar tree_4_3_u04_r5_network.client[38] 	downloads[38] 	12042
scalar tree_4_3_u04_r5_network.client[38] 	avg_time[38] 	0.004831420324
scalar tree_4_3_u04_r5_network.client[39] 	hdistance[39] 	3.0763836079425
scalar tree_4_3_u04_r5_network.client[39] 	downloads[39] 	11835
scalar tree_4_3_u04_r5_network.client[39] 	avg_time[39] 	0.00485283367
