version 2
run General-82-20160819-16:09:09-23511
attr a 0.9
attr cd lce
attr configname General
attr cr lru
attr datetime 20160819-16:09:09
attr experiment General
attr fsize 1
attr inifile hw5115/scenario_A/NRR-LCE.ini
attr iterationvars "$name=tree_4_3, $un=04, $rep=3, $cd=lce, $cr=lru, $fsize=1, $a=0.9, $sl=nrr, $ttl=1000, $variance=0.05"
attr iterationvars2 "$name=tree_4_3, $un=04, $rep=3, $cd=lce, $cr=lru, $fsize=1, $a=0.9, $sl=nrr, $ttl=1000, $variance=0.05, $repetition=0"
attr measurement "$name=tree_4_3, $un=04, $rep=3, $cd=lce, $cr=lru, $fsize=1, $a=0.9, $sl=nrr, $ttl=1000, $variance=0.05"
attr name tree_4_3
attr network networks.${name}_u${un}_r${rep}_network
attr processid 23511
attr rep 3
attr repetition 0
attr replication #0
attr resultdir results
attr runnumber 82
attr seedset 3
attr sl nrr
attr ttl 1000
attr un 04
attr variance 0.05

scalar . 	a 	0.9
scalar . 	fsize 	1
scalar . 	rep 	3
scalar . 	ttl 	1000
scalar . 	un 	04
scalar . 	variance 	0.05
scalar tree_4_3_u04_r3_network.content_distribution 	repo-0 	0
scalar tree_4_3_u04_r3_network.content_distribution 	client-0 	13
scalar tree_4_3_u04_r3_network.content_distribution 	client-1 	14
scalar tree_4_3_u04_r3_network.content_distribution 	client-2 	15
scalar tree_4_3_u04_r3_network.content_distribution 	client-3 	16
scalar tree_4_3_u04_r3_network.content_distribution 	client-4 	17
scalar tree_4_3_u04_r3_network.content_distribution 	client-5 	18
scalar tree_4_3_u04_r3_network.content_distribution 	client-6 	19
scalar tree_4_3_u04_r3_network.content_distribution 	client-7 	20
scalar tree_4_3_u04_r3_network.content_distribution 	client-8 	21
scalar tree_4_3_u04_r3_network.content_distribution 	client-9 	22
scalar tree_4_3_u04_r3_network.content_distribution 	client-10 	23
scalar tree_4_3_u04_r3_network.content_distribution 	client-11 	24
scalar tree_4_3_u04_r3_network.content_distribution 	client-12 	25
scalar tree_4_3_u04_r3_network.content_distribution 	client-13 	26
scalar tree_4_3_u04_r3_network.content_distribution 	client-14 	27
scalar tree_4_3_u04_r3_network.content_distribution 	client-15 	28
scalar tree_4_3_u04_r3_network.content_distribution 	client-16 	29
scalar tree_4_3_u04_r3_network.content_distribution 	client-17 	30
scalar tree_4_3_u04_r3_network.content_distribution 	client-18 	31
scalar tree_4_3_u04_r3_network.content_distribution 	client-19 	32
scalar tree_4_3_u04_r3_network.content_distribution 	client-20 	33
scalar tree_4_3_u04_r3_network.content_distribution 	client-21 	34
scalar tree_4_3_u04_r3_network.content_distribution 	client-22 	35
scalar tree_4_3_u04_r3_network.content_distribution 	client-23 	36
scalar tree_4_3_u04_r3_network.content_distribution 	client-24 	37
scalar tree_4_3_u04_r3_network.content_distribution 	client-25 	38
scalar tree_4_3_u04_r3_network.content_distribution 	client-26 	39
scalar tree_4_3_u04_r3_network.content_distribution 	repo-0_card 	100000
scalar tree_4_3_u04_r3_network.content_distribution 	repo-0_price 	0
scalar tree_4_3_u04_r3_network.statistics 	stabilization_time 	487.5
scalar tree_4_3_u04_r3_network.statistics 	p_hit 	0.18972514734313
scalar tree_4_3_u04_r3_network.statistics 	interests 	27772.375
scalar tree_4_3_u04_r3_network.statistics 	data 	19664.575
scalar tree_4_3_u04_r3_network.statistics 	hdistance 	3.0557990349024
scalar tree_4_3_u04_r3_network.statistics 	avg_time 	0.004850858366
scalar tree_4_3_u04_r3_network.statistics 	downloads 	324279
scalar tree_4_3_u04_r3_network.statistics 	total_cost 	0
scalar tree_4_3_u04_r3_network.statistics 	total_replicas 	100000
scalar tree_4_3_u04_r3_network.statistics 	inner_hit 	0.3695953176123
scalar tree_4_3_u04_r3_network.node[0].core_layer 	interests[0] 	205321
scalar tree_4_3_u04_r3_network.node[0].core_layer 	repo_load[0] 	204427
scalar tree_4_3_u04_r3_network.node[0].core_layer 	data[0] 	0
scalar tree_4_3_u04_r3_network.node[0].core_layer 	repo_int[0] 	204427
scalar tree_4_3_u04_r3_network.node[0].content_store 	p_hit[0] 	0.0043541576360918
scalar tree_4_3_u04_r3_network.node[0].content_store 	hits[0] 	894
scalar tree_4_3_u04_r3_network.node[0].content_store 	misses[0] 	204427
scalar tree_4_3_u04_r3_network.node[0].content_store 	decision_yes[0] 	204427
scalar tree_4_3_u04_r3_network.node[0].content_store 	decision_no[0] 	0
scalar tree_4_3_u04_r3_network.node[0].content_store 	decision_ratio[0] 	1
scalar tree_4_3_u04_r3_network.node[1].core_layer 	interests[1] 	114956
scalar tree_4_3_u04_r3_network.node[1].core_layer 	data[1] 	114046
scalar tree_4_3_u04_r3_network.node[1].content_store 	p_hit[1] 	0.0078986742753749
scalar tree_4_3_u04_r3_network.node[1].content_store 	hits[1] 	908
scalar tree_4_3_u04_r3_network.node[1].content_store 	misses[1] 	114048
scalar tree_4_3_u04_r3_network.node[1].content_store 	decision_yes[1] 	114037
scalar tree_4_3_u04_r3_network.node[1].content_store 	decision_no[1] 	0
scalar tree_4_3_u04_r3_network.node[1].content_store 	decision_ratio[1] 	1
scalar tree_4_3_u04_r3_network.node[2].core_layer 	interests[2] 	81236
scalar tree_4_3_u04_r3_network.node[2].core_layer 	data[2] 	79842
scalar tree_4_3_u04_r3_network.node[2].content_store 	p_hit[2] 	0.017098330789305
scalar tree_4_3_u04_r3_network.node[2].content_store 	hits[2] 	1389
scalar tree_4_3_u04_r3_network.node[2].content_store 	misses[2] 	79847
scalar tree_4_3_u04_r3_network.node[2].content_store 	decision_yes[2] 	79822
scalar tree_4_3_u04_r3_network.node[2].content_store 	decision_no[2] 	0
scalar tree_4_3_u04_r3_network.node[2].content_store 	decision_ratio[2] 	1
scalar tree_4_3_u04_r3_network.node[3].core_layer 	interests[3] 	43010
scalar tree_4_3_u04_r3_network.node[3].core_layer 	data[3] 	41209
scalar tree_4_3_u04_r3_network.node[3].content_store 	p_hit[3] 	0.041850732387817
scalar tree_4_3_u04_r3_network.node[3].content_store 	hits[3] 	1800
scalar tree_4_3_u04_r3_network.node[3].content_store 	misses[3] 	41210
scalar tree_4_3_u04_r3_network.node[3].content_store 	decision_yes[3] 	41206
scalar tree_4_3_u04_r3_network.node[3].content_store 	decision_no[3] 	0
scalar tree_4_3_u04_r3_network.node[3].content_store 	decision_ratio[3] 	1
scalar tree_4_3_u04_r3_network.node[4].core_layer 	interests[4] 	49094
scalar tree_4_3_u04_r3_network.node[4].core_layer 	data[4] 	47345
scalar tree_4_3_u04_r3_network.node[4].content_store 	p_hit[4] 	0.035523689249195
scalar tree_4_3_u04_r3_network.node[4].content_store 	hits[4] 	1744
scalar tree_4_3_u04_r3_network.node[4].content_store 	misses[4] 	47350
scalar tree_4_3_u04_r3_network.node[4].content_store 	decision_yes[4] 	47342
scalar tree_4_3_u04_r3_network.node[4].content_store 	decision_no[4] 	0
scalar tree_4_3_u04_r3_network.node[4].content_store 	decision_ratio[4] 	1
scalar tree_4_3_u04_r3_network.node[5].core_layer 	interests[5] 	27901
scalar tree_4_3_u04_r3_network.node[5].core_layer 	data[5] 	23644
scalar tree_4_3_u04_r3_network.node[5].content_store 	p_hit[5] 	0.15246765348912
scalar tree_4_3_u04_r3_network.node[5].content_store 	hits[5] 	4254
scalar tree_4_3_u04_r3_network.node[5].content_store 	misses[5] 	23647
scalar tree_4_3_u04_r3_network.node[5].content_store 	decision_yes[5] 	23642
scalar tree_4_3_u04_r3_network.node[5].content_store 	decision_no[5] 	0
scalar tree_4_3_u04_r3_network.node[5].content_store 	decision_ratio[5] 	1
scalar tree_4_3_u04_r3_network.node[6].core_layer 	interests[6] 	23025
scalar tree_4_3_u04_r3_network.node[6].core_layer 	data[6] 	20737
scalar tree_4_3_u04_r3_network.node[6].content_store 	p_hit[6] 	0.099370249728556
scalar tree_4_3_u04_r3_network.node[6].content_store 	hits[6] 	2288
scalar tree_4_3_u04_r3_network.node[6].content_store 	misses[6] 	20737
scalar tree_4_3_u04_r3_network.node[6].content_store 	decision_yes[6] 	20736
scalar tree_4_3_u04_r3_network.node[6].content_store 	decision_no[6] 	0
scalar tree_4_3_u04_r3_network.node[6].content_store 	decision_ratio[6] 	1
scalar tree_4_3_u04_r3_network.node[7].core_layer 	interests[7] 	32307
scalar tree_4_3_u04_r3_network.node[7].core_layer 	data[7] 	30708
scalar tree_4_3_u04_r3_network.node[7].content_store 	p_hit[7] 	0.049401058594113
scalar tree_4_3_u04_r3_network.node[7].content_store 	hits[7] 	1596
scalar tree_4_3_u04_r3_network.node[7].content_store 	misses[7] 	30711
scalar tree_4_3_u04_r3_network.node[7].content_store 	decision_yes[7] 	30705
scalar tree_4_3_u04_r3_network.node[7].content_store 	decision_no[7] 	0
scalar tree_4_3_u04_r3_network.node[7].content_store 	decision_ratio[7] 	1
scalar tree_4_3_u04_r3_network.node[8].core_layer 	interests[8] 	30879
scalar tree_4_3_u04_r3_network.node[8].core_layer 	data[8] 	29428
scalar tree_4_3_u04_r3_network.node[8].content_store 	p_hit[8] 	0.046957479192979
scalar tree_4_3_u04_r3_network.node[8].content_store 	hits[8] 	1450
scalar tree_4_3_u04_r3_network.node[8].content_store 	misses[8] 	29429
scalar tree_4_3_u04_r3_network.node[8].content_store 	decision_yes[8] 	29425
scalar tree_4_3_u04_r3_network.node[8].content_store 	decision_no[8] 	0
scalar tree_4_3_u04_r3_network.node[8].content_store 	decision_ratio[8] 	1
scalar tree_4_3_u04_r3_network.node[9].core_layer 	interests[9] 	37703
scalar tree_4_3_u04_r3_network.node[9].core_layer 	data[9] 	33897
scalar tree_4_3_u04_r3_network.node[9].content_store 	p_hit[9] 	0.10086730498899
scalar tree_4_3_u04_r3_network.node[9].content_store 	hits[9] 	3803
scalar tree_4_3_u04_r3_network.node[9].content_store 	misses[9] 	33900
scalar tree_4_3_u04_r3_network.node[9].content_store 	decision_yes[9] 	33889
scalar tree_4_3_u04_r3_network.node[9].content_store 	decision_no[9] 	0
scalar tree_4_3_u04_r3_network.node[9].content_store 	decision_ratio[9] 	1
scalar tree_4_3_u04_r3_network.node[10].core_layer 	interests[10] 	56009
scalar tree_4_3_u04_r3_network.node[10].core_layer 	data[10] 	52575
scalar tree_4_3_u04_r3_network.node[10].content_store 	p_hit[10] 	0.061258012105197
scalar tree_4_3_u04_r3_network.node[10].content_store 	hits[10] 	3431
scalar tree_4_3_u04_r3_network.node[10].content_store 	misses[10] 	52578
scalar tree_4_3_u04_r3_network.node[10].content_store 	decision_yes[10] 	52573
scalar tree_4_3_u04_r3_network.node[10].content_store 	decision_no[10] 	0
scalar tree_4_3_u04_r3_network.node[10].content_store 	decision_ratio[10] 	1
scalar tree_4_3_u04_r3_network.node[11].core_layer 	interests[11] 	22348
scalar tree_4_3_u04_r3_network.node[11].core_layer 	data[11] 	20806
scalar tree_4_3_u04_r3_network.node[11].content_store 	p_hit[11] 	0.06895471630571
scalar tree_4_3_u04_r3_network.node[11].content_store 	hits[11] 	1541
scalar tree_4_3_u04_r3_network.node[11].content_store 	misses[11] 	20807
scalar tree_4_3_u04_r3_network.node[11].content_store 	decision_yes[11] 	20806
scalar tree_4_3_u04_r3_network.node[11].content_store 	decision_no[11] 	0
scalar tree_4_3_u04_r3_network.node[11].content_store 	decision_ratio[11] 	1
scalar tree_4_3_u04_r3_network.node[12].core_layer 	interests[12] 	22212
scalar tree_4_3_u04_r3_network.node[12].core_layer 	data[12] 	20648
scalar tree_4_3_u04_r3_network.node[12].content_store 	p_hit[12] 	0.070367368989735
scalar tree_4_3_u04_r3_network.node[12].content_store 	hits[12] 	1563
scalar tree_4_3_u04_r3_network.node[12].content_store 	misses[12] 	20649
scalar tree_4_3_u04_r3_network.node[12].content_store 	decision_yes[12] 	20648
scalar tree_4_3_u04_r3_network.node[12].content_store 	decision_no[12] 	0
scalar tree_4_3_u04_r3_network.node[12].content_store 	decision_ratio[12] 	1
scalar tree_4_3_u04_r3_network.node[13].core_layer 	interests[13] 	13084
scalar tree_4_3_u04_r3_network.node[13].core_layer 	data[13] 	10001
scalar tree_4_3_u04_r3_network.node[13].content_store 	p_hit[13] 	0.23547844695812
scalar tree_4_3_u04_r3_network.node[13].content_store 	hits[13] 	3081
scalar tree_4_3_u04_r3_network.node[13].content_store 	misses[13] 	10003
scalar tree_4_3_u04_r3_network.node[13].content_store 	decision_yes[13] 	10001
scalar tree_4_3_u04_r3_network.node[13].content_store 	decision_no[13] 	0
scalar tree_4_3_u04_r3_network.node[13].content_store 	decision_ratio[13] 	1
scalar tree_4_3_u04_r3_network.node[14].core_layer 	interests[14] 	14536
scalar tree_4_3_u04_r3_network.node[14].core_layer 	data[14] 	9963
scalar tree_4_3_u04_r3_network.node[14].content_store 	p_hit[14] 	0.31459823885526
scalar tree_4_3_u04_r3_network.node[14].content_store 	hits[14] 	4573
scalar tree_4_3_u04_r3_network.node[14].content_store 	misses[14] 	9963
scalar tree_4_3_u04_r3_network.node[14].content_store 	decision_yes[14] 	9963
scalar tree_4_3_u04_r3_network.node[14].content_store 	decision_no[14] 	0
scalar tree_4_3_u04_r3_network.node[14].content_store 	decision_ratio[14] 	1
scalar tree_4_3_u04_r3_network.node[15].core_layer 	interests[15] 	13165
scalar tree_4_3_u04_r3_network.node[15].core_layer 	data[15] 	10096
scalar tree_4_3_u04_r3_network.node[15].content_store 	p_hit[15] 	0.23304215723509
scalar tree_4_3_u04_r3_network.node[15].content_store 	hits[15] 	3068
scalar tree_4_3_u04_r3_network.node[15].content_store 	misses[15] 	10097
scalar tree_4_3_u04_r3_network.node[15].content_store 	decision_yes[15] 	10096
scalar tree_4_3_u04_r3_network.node[15].content_store 	decision_no[15] 	0
scalar tree_4_3_u04_r3_network.node[15].content_store 	decision_ratio[15] 	1
scalar tree_4_3_u04_r3_network.node[16].core_layer 	interests[16] 	14651
scalar tree_4_3_u04_r3_network.node[16].core_layer 	data[16] 	10160
scalar tree_4_3_u04_r3_network.node[16].content_store 	p_hit[16] 	0.30646372261279
scalar tree_4_3_u04_r3_network.node[16].content_store 	hits[16] 	4490
scalar tree_4_3_u04_r3_network.node[16].content_store 	misses[16] 	10161
scalar tree_4_3_u04_r3_network.node[16].content_store 	decision_yes[16] 	10160
scalar tree_4_3_u04_r3_network.node[16].content_store 	decision_no[16] 	0
scalar tree_4_3_u04_r3_network.node[16].content_store 	decision_ratio[16] 	1
scalar tree_4_3_u04_r3_network.node[17].core_layer 	interests[17] 	13204
scalar tree_4_3_u04_r3_network.node[17].core_layer 	data[17] 	10155
scalar tree_4_3_u04_r3_network.node[17].content_store 	p_hit[17] 	0.23091487428052
scalar tree_4_3_u04_r3_network.node[17].content_store 	hits[17] 	3049
scalar tree_4_3_u04_r3_network.node[17].content_store 	misses[17] 	10155
scalar tree_4_3_u04_r3_network.node[17].content_store 	decision_yes[17] 	10155
scalar tree_4_3_u04_r3_network.node[17].content_store 	decision_no[17] 	0
scalar tree_4_3_u04_r3_network.node[17].content_store 	decision_ratio[17] 	1
scalar tree_4_3_u04_r3_network.node[18].core_layer 	interests[18] 	14387
scalar tree_4_3_u04_r3_network.node[18].core_layer 	data[18] 	9985
scalar tree_4_3_u04_r3_network.node[18].content_store 	p_hit[18] 	0.30597066796413
scalar tree_4_3_u04_r3_network.node[18].content_store 	hits[18] 	4402
scalar tree_4_3_u04_r3_network.node[18].content_store 	misses[18] 	9985
scalar tree_4_3_u04_r3_network.node[18].content_store 	decision_yes[18] 	9985
scalar tree_4_3_u04_r3_network.node[18].content_store 	decision_no[18] 	0
scalar tree_4_3_u04_r3_network.node[18].content_store 	decision_ratio[18] 	1
scalar tree_4_3_u04_r3_network.node[19].core_layer 	interests[19] 	14147
scalar tree_4_3_u04_r3_network.node[19].core_layer 	data[19] 	10042
scalar tree_4_3_u04_r3_network.node[19].content_store 	p_hit[19] 	0.2900261539549
scalar tree_4_3_u04_r3_network.node[19].content_store 	hits[19] 	4103
scalar tree_4_3_u04_r3_network.node[19].content_store 	misses[19] 	10044
scalar tree_4_3_u04_r3_network.node[19].content_store 	decision_yes[19] 	10042
scalar tree_4_3_u04_r3_network.node[19].content_store 	decision_no[19] 	0
scalar tree_4_3_u04_r3_network.node[19].content_store 	decision_ratio[19] 	1
scalar tree_4_3_u04_r3_network.node[20].core_layer 	interests[20] 	12560
scalar tree_4_3_u04_r3_network.node[20].core_layer 	data[20] 	9888
scalar tree_4_3_u04_r3_network.node[20].content_store 	p_hit[20] 	0.2125
scalar tree_4_3_u04_r3_network.node[20].content_store 	hits[20] 	2669
scalar tree_4_3_u04_r3_network.node[20].content_store 	misses[20] 	9891
scalar tree_4_3_u04_r3_network.node[20].content_store 	decision_yes[20] 	9888
scalar tree_4_3_u04_r3_network.node[20].content_store 	decision_no[20] 	0
scalar tree_4_3_u04_r3_network.node[20].content_store 	decision_ratio[20] 	1
scalar tree_4_3_u04_r3_network.node[21].core_layer 	interests[21] 	12654
scalar tree_4_3_u04_r3_network.node[21].core_layer 	data[21] 	9960
scalar tree_4_3_u04_r3_network.node[21].content_store 	p_hit[21] 	0.21289710763395
scalar tree_4_3_u04_r3_network.node[21].content_store 	hits[21] 	2694
scalar tree_4_3_u04_r3_network.node[21].content_store 	misses[21] 	9960
scalar tree_4_3_u04_r3_network.node[21].content_store 	decision_yes[21] 	9960
scalar tree_4_3_u04_r3_network.node[21].content_store 	decision_no[21] 	0
scalar tree_4_3_u04_r3_network.node[21].content_store 	decision_ratio[21] 	1
scalar tree_4_3_u04_r3_network.node[22].core_layer 	interests[22] 	12847
scalar tree_4_3_u04_r3_network.node[22].core_layer 	data[22] 	9960
scalar tree_4_3_u04_r3_network.node[22].content_store 	p_hit[22] 	0.22464388573208
scalar tree_4_3_u04_r3_network.node[22].content_store 	hits[22] 	2886
scalar tree_4_3_u04_r3_network.node[22].content_store 	misses[22] 	9961
scalar tree_4_3_u04_r3_network.node[22].content_store 	decision_yes[22] 	9960
scalar tree_4_3_u04_r3_network.node[22].content_store 	decision_no[22] 	0
scalar tree_4_3_u04_r3_network.node[22].content_store 	decision_ratio[22] 	1
scalar tree_4_3_u04_r3_network.node[23].core_layer 	interests[23] 	13169
scalar tree_4_3_u04_r3_network.node[23].core_layer 	data[23] 	10122
scalar tree_4_3_u04_r3_network.node[23].content_store 	p_hit[23] 	0.23130078213987
scalar tree_4_3_u04_r3_network.node[23].content_store 	hits[23] 	3046
scalar tree_4_3_u04_r3_network.node[23].content_store 	misses[23] 	10123
scalar tree_4_3_u04_r3_network.node[23].content_store 	decision_yes[23] 	10122
scalar tree_4_3_u04_r3_network.node[23].content_store 	decision_no[23] 	0
scalar tree_4_3_u04_r3_network.node[23].content_store 	decision_ratio[23] 	1
scalar tree_4_3_u04_r3_network.node[24].core_layer 	interests[24] 	13051
scalar tree_4_3_u04_r3_network.node[24].core_layer 	data[24] 	10162
scalar tree_4_3_u04_r3_network.node[24].content_store 	p_hit[24] 	0.22120910275075
scalar tree_4_3_u04_r3_network.node[24].content_store 	hits[24] 	2887
scalar tree_4_3_u04_r3_network.node[24].content_store 	misses[24] 	10164
scalar tree_4_3_u04_r3_network.node[24].content_store 	decision_yes[24] 	10162
scalar tree_4_3_u04_r3_network.node[24].content_store 	decision_no[24] 	0
scalar tree_4_3_u04_r3_network.node[24].content_store 	decision_ratio[24] 	1
scalar tree_4_3_u04_r3_network.node[25].core_layer 	interests[25] 	13055
scalar tree_4_3_u04_r3_network.node[25].core_layer 	data[25] 	10296
scalar tree_4_3_u04_r3_network.node[25].content_store 	p_hit[25] 	0.21118345461509
scalar tree_4_3_u04_r3_network.node[25].content_store 	hits[25] 	2757
scalar tree_4_3_u04_r3_network.node[25].content_store 	misses[25] 	10298
scalar tree_4_3_u04_r3_network.node[25].content_store 	decision_yes[25] 	10296
scalar tree_4_3_u04_r3_network.node[25].content_store 	decision_no[25] 	0
scalar tree_4_3_u04_r3_network.node[25].content_store 	decision_ratio[25] 	1
scalar tree_4_3_u04_r3_network.node[26].core_layer 	interests[26] 	12993
scalar tree_4_3_u04_r3_network.node[26].core_layer 	data[26] 	10140
scalar tree_4_3_u04_r3_network.node[26].content_store 	p_hit[26] 	0.2194258446856
scalar tree_4_3_u04_r3_network.node[26].content_store 	hits[26] 	2851
scalar tree_4_3_u04_r3_network.node[26].content_store 	misses[26] 	10142
scalar tree_4_3_u04_r3_network.node[26].content_store 	decision_yes[26] 	10140
scalar tree_4_3_u04_r3_network.node[26].content_store 	decision_no[26] 	0
scalar tree_4_3_u04_r3_network.node[26].content_store 	decision_ratio[26] 	1
scalar tree_4_3_u04_r3_network.node[27].core_layer 	interests[27] 	14791
scalar tree_4_3_u04_r3_network.node[27].core_layer 	data[27] 	9942
scalar tree_4_3_u04_r3_network.node[27].content_store 	p_hit[27] 	0.32776688526807
scalar tree_4_3_u04_r3_network.node[27].content_store 	hits[27] 	4848
scalar tree_4_3_u04_r3_network.node[27].content_store 	misses[27] 	9943
scalar tree_4_3_u04_r3_network.node[27].content_store 	decision_yes[27] 	9942
scalar tree_4_3_u04_r3_network.node[27].content_store 	decision_no[27] 	0
scalar tree_4_3_u04_r3_network.node[27].content_store 	decision_ratio[27] 	1
scalar tree_4_3_u04_r3_network.node[28].core_layer 	interests[28] 	13477
scalar tree_4_3_u04_r3_network.node[28].core_layer 	data[28] 	9891
scalar tree_4_3_u04_r3_network.node[28].content_store 	p_hit[28] 	0.26608295614751
scalar tree_4_3_u04_r3_network.node[28].content_store 	hits[28] 	3586
scalar tree_4_3_u04_r3_network.node[28].content_store 	misses[28] 	9891
scalar tree_4_3_u04_r3_network.node[28].content_store 	decision_yes[28] 	9891
scalar tree_4_3_u04_r3_network.node[28].content_store 	decision_no[28] 	0
scalar tree_4_3_u04_r3_network.node[28].content_store 	decision_ratio[28] 	1
scalar tree_4_3_u04_r3_network.node[29].core_layer 	interests[29] 	13667
scalar tree_4_3_u04_r3_network.node[29].core_layer 	data[29] 	10097
scalar tree_4_3_u04_r3_network.node[29].content_store 	p_hit[29] 	0.2611399721958
scalar tree_4_3_u04_r3_network.node[29].content_store 	hits[29] 	3569
scalar tree_4_3_u04_r3_network.node[29].content_store 	misses[29] 	10098
scalar tree_4_3_u04_r3_network.node[29].content_store 	decision_yes[29] 	10097
scalar tree_4_3_u04_r3_network.node[29].content_store 	decision_no[29] 	0
scalar tree_4_3_u04_r3_network.node[29].content_store 	decision_ratio[29] 	1
scalar tree_4_3_u04_r3_network.node[30].core_layer 	interests[30] 	13679
scalar tree_4_3_u04_r3_network.node[30].core_layer 	data[30] 	10044
scalar tree_4_3_u04_r3_network.node[30].content_store 	p_hit[30] 	0.26573579940054
scalar tree_4_3_u04_r3_network.node[30].content_store 	hits[30] 	3635
scalar tree_4_3_u04_r3_network.node[30].content_store 	misses[30] 	10044
scalar tree_4_3_u04_r3_network.node[30].content_store 	decision_yes[30] 	10044
scalar tree_4_3_u04_r3_network.node[30].content_store 	decision_no[30] 	0
scalar tree_4_3_u04_r3_network.node[30].content_store 	decision_ratio[30] 	1
scalar tree_4_3_u04_r3_network.node[31].core_layer 	interests[31] 	13975
scalar tree_4_3_u04_r3_network.node[31].core_layer 	data[31] 	10147
scalar tree_4_3_u04_r3_network.node[31].content_store 	p_hit[31] 	0.27391771019678
scalar tree_4_3_u04_r3_network.node[31].content_store 	hits[31] 	3828
scalar tree_4_3_u04_r3_network.node[31].content_store 	misses[31] 	10147
scalar tree_4_3_u04_r3_network.node[31].content_store 	decision_yes[31] 	10147
scalar tree_4_3_u04_r3_network.node[31].content_store 	decision_no[31] 	0
scalar tree_4_3_u04_r3_network.node[31].content_store 	decision_ratio[31] 	1
scalar tree_4_3_u04_r3_network.node[32].core_layer 	interests[32] 	13813
scalar tree_4_3_u04_r3_network.node[32].core_layer 	data[32] 	9948
scalar tree_4_3_u04_r3_network.node[32].content_store 	p_hit[32] 	0.27980887569681
scalar tree_4_3_u04_r3_network.node[32].content_store 	hits[32] 	3865
scalar tree_4_3_u04_r3_network.node[32].content_store 	misses[32] 	9948
scalar tree_4_3_u04_r3_network.node[32].content_store 	decision_yes[32] 	9948
scalar tree_4_3_u04_r3_network.node[32].content_store 	decision_no[32] 	0
scalar tree_4_3_u04_r3_network.node[32].content_store 	decision_ratio[32] 	1
scalar tree_4_3_u04_r3_network.node[33].core_layer 	interests[33] 	13683
scalar tree_4_3_u04_r3_network.node[33].core_layer 	data[33] 	9891
scalar tree_4_3_u04_r3_network.node[33].content_store 	p_hit[33] 	0.27698604107286
scalar tree_4_3_u04_r3_network.node[33].content_store 	hits[33] 	3790
scalar tree_4_3_u04_r3_network.node[33].content_store 	misses[33] 	9893
scalar tree_4_3_u04_r3_network.node[33].content_store 	decision_yes[33] 	9891
scalar tree_4_3_u04_r3_network.node[33].content_store 	decision_no[33] 	0
scalar tree_4_3_u04_r3_network.node[33].content_store 	decision_ratio[33] 	1
scalar tree_4_3_u04_r3_network.node[34].core_layer 	interests[34] 	14830
scalar tree_4_3_u04_r3_network.node[34].core_layer 	data[34] 	10075
scalar tree_4_3_u04_r3_network.node[34].content_store 	p_hit[34] 	0.32056641942009
scalar tree_4_3_u04_r3_network.node[34].content_store 	hits[34] 	4754
scalar tree_4_3_u04_r3_network.node[34].content_store 	misses[34] 	10076
scalar tree_4_3_u04_r3_network.node[34].content_store 	decision_yes[34] 	10075
scalar tree_4_3_u04_r3_network.node[34].content_store 	decision_no[34] 	0
scalar tree_4_3_u04_r3_network.node[34].content_store 	decision_ratio[34] 	1
scalar tree_4_3_u04_r3_network.node[35].core_layer 	interests[35] 	12654
scalar tree_4_3_u04_r3_network.node[35].core_layer 	data[35] 	10171
scalar tree_4_3_u04_r3_network.node[35].content_store 	p_hit[35] 	0.1962225383278
scalar tree_4_3_u04_r3_network.node[35].content_store 	hits[35] 	2483
scalar tree_4_3_u04_r3_network.node[35].content_store 	misses[35] 	10171
scalar tree_4_3_u04_r3_network.node[35].content_store 	decision_yes[35] 	10171
scalar tree_4_3_u04_r3_network.node[35].content_store 	decision_no[35] 	0
scalar tree_4_3_u04_r3_network.node[35].content_store 	decision_ratio[35] 	1
scalar tree_4_3_u04_r3_network.node[36].core_layer 	interests[36] 	12770
scalar tree_4_3_u04_r3_network.node[36].core_layer 	data[36] 	10219
scalar tree_4_3_u04_r3_network.node[36].content_store 	p_hit[36] 	0.19968676585748
scalar tree_4_3_u04_r3_network.node[36].content_store 	hits[36] 	2550
scalar tree_4_3_u04_r3_network.node[36].content_store 	misses[36] 	10220
scalar tree_4_3_u04_r3_network.node[36].content_store 	decision_yes[36] 	10219
scalar tree_4_3_u04_r3_network.node[36].content_store 	decision_no[36] 	0
scalar tree_4_3_u04_r3_network.node[36].content_store 	decision_ratio[36] 	1
scalar tree_4_3_u04_r3_network.node[37].core_layer 	interests[37] 	14734
scalar tree_4_3_u04_r3_network.node[37].core_layer 	data[37] 	10095
scalar tree_4_3_u04_r3_network.node[37].content_store 	p_hit[37] 	0.31485000678702
scalar tree_4_3_u04_r3_network.node[37].content_store 	hits[37] 	4639
scalar tree_4_3_u04_r3_network.node[37].content_store 	misses[37] 	10095
scalar tree_4_3_u04_r3_network.node[37].content_store 	decision_yes[37] 	10095
scalar tree_4_3_u04_r3_network.node[37].content_store 	decision_no[37] 	0
scalar tree_4_3_u04_r3_network.node[37].content_store 	decision_ratio[37] 	1
scalar tree_4_3_u04_r3_network.node[38].core_layer 	interests[38] 	12754
scalar tree_4_3_u04_r3_network.node[38].core_layer 	data[38] 	10223
scalar tree_4_3_u04_r3_network.node[38].content_store 	p_hit[38] 	0.19821232554493
scalar tree_4_3_u04_r3_network.node[38].content_store 	hits[38] 	2528
scalar tree_4_3_u04_r3_network.node[38].content_store 	misses[38] 	10226
scalar tree_4_3_u04_r3_network.node[38].content_store 	decision_yes[38] 	10223
scalar tree_4_3_u04_r3_network.node[38].content_store 	decision_no[38] 	0
scalar tree_4_3_u04_r3_network.node[38].content_store 	decision_ratio[38] 	1
scalar tree_4_3_u04_r3_network.node[39].core_layer 	interests[39] 	12564
scalar tree_4_3_u04_r3_network.node[39].core_layer 	data[39] 	10025
scalar tree_4_3_u04_r3_network.node[39].content_store 	p_hit[39] 	0.20200573065903
scalar tree_4_3_u04_r3_network.node[39].content_store 	hits[39] 	2538
scalar tree_4_3_u04_r3_network.node[39].content_store 	misses[39] 	10026
scalar tree_4_3_u04_r3_network.node[39].content_store 	decision_yes[39] 	10025
scalar tree_4_3_u04_r3_network.node[39].content_store 	decision_no[39] 	0
scalar tree_4_3_u04_r3_network.node[39].content_store 	decision_ratio[39] 	1
scalar tree_4_3_u04_r3_network.client[13] 	hdistance[13] 	3.064380920446
scalar tree_4_3_u04_r3_network.client[13] 	downloads[13] 	11929
scalar tree_4_3_u04_r3_network.client[13] 	avg_time[13] 	0.004841141462
scalar tree_4_3_u04_r3_network.client[14] 	hdistance[14] 	2.9297544735747
scalar tree_4_3_u04_r3_network.client[14] 	downloads[14] 	12015
scalar tree_4_3_u04_r3_network.client[14] 	avg_time[14] 	0.004663168032
scalar tree_4_3_u04_r3_network.client[15] 	hdistance[15] 	3.073885880883
scalar tree_4_3_u04_r3_network.client[15] 	downloads[15] 	12005
scalar tree_4_3_u04_r3_network.client[15] 	avg_time[15] 	0.004856005095
scalar tree_4_3_u04_r3_network.client[16] 	hdistance[16] 	2.9687010954617
scalar tree_4_3_u04_r3_network.client[16] 	downloads[16] 	12141
scalar tree_4_3_u04_r3_network.client[16] 	avg_time[16] 	0.004718819941
scalar tree_4_3_u04_r3_network.client[17] 	hdistance[17] 	3.0484231437795
scalar tree_4_3_u04_r3_network.client[17] 	downloads[17] 	12081
scalar tree_4_3_u04_r3_network.client[17] 	avg_time[17] 	0.004892334736
scalar tree_4_3_u04_r3_network.client[18] 	hdistance[18] 	2.9472896574659
scalar tree_4_3_u04_r3_network.client[18] 	downloads[18] 	12028
scalar tree_4_3_u04_r3_network.client[18] 	avg_time[18] 	0.004684363979
scalar tree_4_3_u04_r3_network.client[19] 	hdistance[19] 	2.975652173913
scalar tree_4_3_u04_r3_network.client[19] 	downloads[19] 	12075
scalar tree_4_3_u04_r3_network.client[19] 	avg_time[19] 	0.00465873278
scalar tree_4_3_u04_r3_network.client[20] 	hdistance[20] 	3.0772877338525
scalar tree_4_3_u04_r3_network.client[20] 	downloads[20] 	11813
scalar tree_4_3_u04_r3_network.client[20] 	avg_time[20] 	0.004869977981
scalar tree_4_3_u04_r3_network.client[21] 	hdistance[21] 	3.0621544647345
scalar tree_4_3_u04_r3_network.client[21] 	downloads[21] 	11938
scalar tree_4_3_u04_r3_network.client[21] 	avg_time[21] 	0.00485256866
scalar tree_4_3_u04_r3_network.client[22] 	hdistance[22] 	3.1289125116004
scalar tree_4_3_u04_r3_network.client[22] 	downloads[22] 	11853
scalar tree_4_3_u04_r3_network.client[22] 	avg_time[22] 	0.004952999405
scalar tree_4_3_u04_r3_network.client[23] 	hdistance[23] 	3.1109831345125
scalar tree_4_3_u04_r3_network.client[23] 	downloads[23] 	12155
scalar tree_4_3_u04_r3_network.client[23] 	avg_time[23] 	0.00492389659
scalar tree_4_3_u04_r3_network.client[24] 	hdistance[24] 	3.146975973488
scalar tree_4_3_u04_r3_network.client[24] 	downloads[24] 	12070
scalar tree_4_3_u04_r3_network.client[24] 	avg_time[24] 	0.004983056879
scalar tree_4_3_u04_r3_network.client[25] 	hdistance[25] 	3.1505420499343
scalar tree_4_3_u04_r3_network.client[25] 	downloads[25] 	12176
scalar tree_4_3_u04_r3_network.client[25] 	avg_time[25] 	0.004974680911
scalar tree_4_3_u04_r3_network.client[26] 	hdistance[26] 	3.1173262827398
scalar tree_4_3_u04_r3_network.client[26] 	downloads[26] 	12103
scalar tree_4_3_u04_r3_network.client[26] 	avg_time[26] 	0.004930820065
scalar tree_4_3_u04_r3_network.client[27] 	hdistance[27] 	2.9732329569218
scalar tree_4_3_u04_r3_network.client[27] 	downloads[27] 	11955
scalar tree_4_3_u04_r3_network.client[27] 	avg_time[27] 	0.004731130384
scalar tree_4_3_u04_r3_network.client[28] 	hdistance[28] 	3.0403416779432
scalar tree_4_3_u04_r3_network.client[28] 	downloads[28] 	11824
scalar tree_4_3_u04_r3_network.client[28] 	avg_time[28] 	0.004862480104
scalar tree_4_3_u04_r3_network.client[29] 	hdistance[29] 	3.0353330575093
scalar tree_4_3_u04_r3_network.client[29] 	downloads[29] 	12085
scalar tree_4_3_u04_r3_network.client[29] 	avg_time[29] 	0.004844047444
scalar tree_4_3_u04_r3_network.client[30] 	hdistance[30] 	3.0332557366146
scalar tree_4_3_u04_r3_network.client[30] 	downloads[30] 	12028
scalar tree_4_3_u04_r3_network.client[30] 	avg_time[30] 	0.004852027332
scalar tree_4_3_u04_r3_network.client[31] 	hdistance[31] 	3.0148539362931
scalar tree_4_3_u04_r3_network.client[31] 	downloads[31] 	12118
scalar tree_4_3_u04_r3_network.client[31] 	avg_time[31] 	0.004813002413
scalar tree_4_3_u04_r3_network.client[32] 	hdistance[32] 	3.0091297428595
scalar tree_4_3_u04_r3_network.client[32] 	downloads[32] 	11939
scalar tree_4_3_u04_r3_network.client[32] 	avg_time[32] 	0.004797567776
scalar tree_4_3_u04_r3_network.client[33] 	hdistance[33] 	3.0375287209599
scalar tree_4_3_u04_r3_network.client[33] 	downloads[33] 	11751
scalar tree_4_3_u04_r3_network.client[33] 	avg_time[33] 	0.004850939425
scalar tree_4_3_u04_r3_network.client[34] 	hdistance[34] 	2.9914985830972
scalar tree_4_3_u04_r3_network.client[34] 	downloads[34] 	11998
scalar tree_4_3_u04_r3_network.client[34] 	avg_time[34] 	0.004748075537
scalar tree_4_3_u04_r3_network.client[35] 	hdistance[35] 	3.1519840279511
scalar tree_4_3_u04_r3_network.client[35] 	downloads[35] 	12021
scalar tree_4_3_u04_r3_network.client[35] 	avg_time[35] 	0.004992319323
scalar tree_4_3_u04_r3_network.client[36] 	hdistance[36] 	3.1445215666832
scalar tree_4_3_u04_r3_network.client[36] 	downloads[36] 	12102
scalar tree_4_3_u04_r3_network.client[36] 	avg_time[36] 	0.004987662841
scalar tree_4_3_u04_r3_network.client[37] 	hdistance[37] 	2.9821043910522
scalar tree_4_3_u04_r3_network.client[37] 	downloads[37] 	12070
scalar tree_4_3_u04_r3_network.client[37] 	avg_time[37] 	0.004730565038
scalar tree_4_3_u04_r3_network.client[38] 	hdistance[38] 	3.1494879418566
scalar tree_4_3_u04_r3_network.client[38] 	downloads[38] 	12108
scalar tree_4_3_u04_r3_network.client[38] 	avg_time[38] 	0.004984395323
scalar tree_4_3_u04_r3_network.client[39] 	hdistance[39] 	3.1410321062363
scalar tree_4_3_u04_r3_network.client[39] 	downloads[39] 	11898
scalar tree_4_3_u04_r3_network.client[39] 	avg_time[39] 	0.004976396439
