version 2
run General-90-20160819-16:17:34-23511
attr a 0.9
attr cd lce
attr configname General
attr cr lru
attr datetime 20160819-16:17:34
attr experiment General
attr fsize 1
attr inifile hw5115/scenario_A/NRR-LCE.ini
attr iterationvars "$name=tree_4_3, $un=04, $rep=11, $cd=lce, $cr=lru, $fsize=1, $a=0.9, $sl=nrr, $ttl=1000, $variance=0.05"
attr iterationvars2 "$name=tree_4_3, $un=04, $rep=11, $cd=lce, $cr=lru, $fsize=1, $a=0.9, $sl=nrr, $ttl=1000, $variance=0.05, $repetition=0"
attr measurement "$name=tree_4_3, $un=04, $rep=11, $cd=lce, $cr=lru, $fsize=1, $a=0.9, $sl=nrr, $ttl=1000, $variance=0.05"
attr name tree_4_3
attr network networks.${name}_u${un}_r${rep}_network
attr processid 23511
attr rep 11
attr repetition 0
attr replication #0
attr resultdir results
attr runnumber 90
attr seedset 11
attr sl nrr
attr ttl 1000
attr un 04
attr variance 0.05

scalar . 	a 	0.9
scalar . 	fsize 	1
scalar . 	rep 	11
scalar . 	ttl 	1000
scalar . 	un 	04
scalar . 	variance 	0.05
scalar tree_4_3_u04_r11_network.content_distribution 	repo-0 	0
scalar tree_4_3_u04_r11_network.content_distribution 	client-0 	13
scalar tree_4_3_u04_r11_network.content_distribution 	client-1 	14
scalar tree_4_3_u04_r11_network.content_distribution 	client-2 	15
scalar tree_4_3_u04_r11_network.content_distribution 	client-3 	16
scalar tree_4_3_u04_r11_network.content_distribution 	client-4 	17
scalar tree_4_3_u04_r11_network.content_distribution 	client-5 	18
scalar tree_4_3_u04_r11_network.content_distribution 	client-6 	19
scalar tree_4_3_u04_r11_network.content_distribution 	client-7 	20
scalar tree_4_3_u04_r11_network.content_distribution 	client-8 	21
scalar tree_4_3_u04_r11_network.content_distribution 	client-9 	22
scalar tree_4_3_u04_r11_network.content_distribution 	client-10 	23
scalar tree_4_3_u04_r11_network.content_distribution 	client-11 	24
scalar tree_4_3_u04_r11_network.content_distribution 	client-12 	25
scalar tree_4_3_u04_r11_network.content_distribution 	client-13 	26
scalar tree_4_3_u04_r11_network.content_distribution 	client-14 	27
scalar tree_4_3_u04_r11_network.content_distribution 	client-15 	28
scalar tree_4_3_u04_r11_network.content_distribution 	client-16 	29
scalar tree_4_3_u04_r11_network.content_distribution 	client-17 	30
scalar tree_4_3_u04_r11_network.content_distribution 	client-18 	31
scalar tree_4_3_u04_r11_network.content_distribution 	client-19 	32
scalar tree_4_3_u04_r11_network.content_distribution 	client-20 	33
scalar tree_4_3_u04_r11_network.content_distribution 	client-21 	34
scalar tree_4_3_u04_r11_network.content_distribution 	client-22 	35
scalar tree_4_3_u04_r11_network.content_distribution 	client-23 	36
scalar tree_4_3_u04_r11_network.content_distribution 	client-24 	37
scalar tree_4_3_u04_r11_network.content_distribution 	client-25 	38
scalar tree_4_3_u04_r11_network.content_distribution 	client-26 	39
scalar tree_4_3_u04_r11_network.content_distribution 	repo-0_card 	100000
scalar tree_4_3_u04_r11_network.content_distribution 	repo-0_price 	0
scalar tree_4_3_u04_r11_network.statistics 	stabilization_time 	484.5
scalar tree_4_3_u04_r11_network.statistics 	p_hit 	0.18043349570794
scalar tree_4_3_u04_r11_network.statistics 	interests 	27514.675
scalar tree_4_3_u04_r11_network.statistics 	data 	19419.95
scalar tree_4_3_u04_r11_network.statistics 	hdistance 	3.0641844079729
scalar tree_4_3_u04_r11_network.statistics 	avg_time 	0.004798082133
scalar tree_4_3_u04_r11_network.statistics 	downloads 	323770
scalar tree_4_3_u04_r11_network.statistics 	total_cost 	0
scalar tree_4_3_u04_r11_network.statistics 	total_replicas 	100000
scalar tree_4_3_u04_r11_network.statistics 	inner_hit 	0.33489514161287
scalar tree_4_3_u04_r11_network.node[0].core_layer 	interests[0] 	216722
scalar tree_4_3_u04_r11_network.node[0].core_layer 	repo_load[0] 	215341
scalar tree_4_3_u04_r11_network.node[0].core_layer 	data[0] 	0
scalar tree_4_3_u04_r11_network.node[0].core_layer 	repo_int[0] 	215341
scalar tree_4_3_u04_r11_network.node[0].content_store 	p_hit[0] 	0.006372218787202
scalar tree_4_3_u04_r11_network.node[0].content_store 	hits[0] 	1381
scalar tree_4_3_u04_r11_network.node[0].content_store 	misses[0] 	215341
scalar tree_4_3_u04_r11_network.node[0].content_store 	decision_yes[0] 	215341
scalar tree_4_3_u04_r11_network.node[0].content_store 	decision_no[0] 	0
scalar tree_4_3_u04_r11_network.node[0].content_store 	decision_ratio[0] 	1
scalar tree_4_3_u04_r11_network.node[1].core_layer 	interests[1] 	76048
scalar tree_4_3_u04_r11_network.node[1].core_layer 	data[1] 	75440
scalar tree_4_3_u04_r11_network.node[1].content_store 	p_hit[1] 	0.0079949505575426
scalar tree_4_3_u04_r11_network.node[1].content_store 	hits[1] 	608
scalar tree_4_3_u04_r11_network.node[1].content_store 	misses[1] 	75440
scalar tree_4_3_u04_r11_network.node[1].content_store 	decision_yes[1] 	75434
scalar tree_4_3_u04_r11_network.node[1].content_store 	decision_no[1] 	0
scalar tree_4_3_u04_r11_network.node[1].content_store 	decision_ratio[1] 	1
scalar tree_4_3_u04_r11_network.node[2].core_layer 	interests[2] 	82722
scalar tree_4_3_u04_r11_network.node[2].core_layer 	data[2] 	81365
scalar tree_4_3_u04_r11_network.node[2].content_store 	p_hit[2] 	0.016343898841904
scalar tree_4_3_u04_r11_network.node[2].content_store 	hits[2] 	1352
scalar tree_4_3_u04_r11_network.node[2].content_store 	misses[2] 	81370
scalar tree_4_3_u04_r11_network.node[2].content_store 	decision_yes[2] 	81356
scalar tree_4_3_u04_r11_network.node[2].content_store 	decision_no[2] 	0
scalar tree_4_3_u04_r11_network.node[2].content_store 	decision_ratio[2] 	1
scalar tree_4_3_u04_r11_network.node[3].core_layer 	interests[3] 	77920
scalar tree_4_3_u04_r11_network.node[3].core_layer 	data[3] 	77354
scalar tree_4_3_u04_r11_network.node[3].content_store 	p_hit[3] 	0.0072510266940452
scalar tree_4_3_u04_r11_network.node[3].content_store 	hits[3] 	565
scalar tree_4_3_u04_r11_network.node[3].content_store 	misses[3] 	77355
scalar tree_4_3_u04_r11_network.node[3].content_store 	decision_yes[3] 	77351
scalar tree_4_3_u04_r11_network.node[3].content_store 	decision_no[3] 	0
scalar tree_4_3_u04_r11_network.node[3].content_store 	decision_ratio[3] 	1
scalar tree_4_3_u04_r11_network.node[4].core_layer 	interests[4] 	38719
scalar tree_4_3_u04_r11_network.node[4].core_layer 	data[4] 	37395
scalar tree_4_3_u04_r11_network.node[4].content_store 	p_hit[4] 	0.034195098013895
scalar tree_4_3_u04_r11_network.node[4].content_store 	hits[4] 	1324
scalar tree_4_3_u04_r11_network.node[4].content_store 	misses[4] 	37395
scalar tree_4_3_u04_r11_network.node[4].content_store 	decision_yes[4] 	37394
scalar tree_4_3_u04_r11_network.node[4].content_store 	decision_no[4] 	0
scalar tree_4_3_u04_r11_network.node[4].content_store 	decision_ratio[4] 	1
scalar tree_4_3_u04_r11_network.node[5].core_layer 	interests[5] 	27462
scalar tree_4_3_u04_r11_network.node[5].core_layer 	data[5] 	23871
scalar tree_4_3_u04_r11_network.node[5].content_store 	p_hit[5] 	0.13065326633166
scalar tree_4_3_u04_r11_network.node[5].content_store 	hits[5] 	3588
scalar tree_4_3_u04_r11_network.node[5].content_store 	misses[5] 	23874
scalar tree_4_3_u04_r11_network.node[5].content_store 	decision_yes[5] 	23869
scalar tree_4_3_u04_r11_network.node[5].content_store 	decision_no[5] 	0
scalar tree_4_3_u04_r11_network.node[5].content_store 	decision_ratio[5] 	1
scalar tree_4_3_u04_r11_network.node[6].core_layer 	interests[6] 	32347
scalar tree_4_3_u04_r11_network.node[6].core_layer 	data[6] 	30642
scalar tree_4_3_u04_r11_network.node[6].content_store 	p_hit[6] 	0.052616935109902
scalar tree_4_3_u04_r11_network.node[6].content_store 	hits[6] 	1702
scalar tree_4_3_u04_r11_network.node[6].content_store 	misses[6] 	30645
scalar tree_4_3_u04_r11_network.node[6].content_store 	decision_yes[6] 	30640
scalar tree_4_3_u04_r11_network.node[6].content_store 	decision_no[6] 	0
scalar tree_4_3_u04_r11_network.node[6].content_store 	decision_ratio[6] 	1
scalar tree_4_3_u04_r11_network.node[7].core_layer 	interests[7] 	51551
scalar tree_4_3_u04_r11_network.node[7].core_layer 	data[7] 	49568
scalar tree_4_3_u04_r11_network.node[7].content_store 	p_hit[7] 	0.038369769742585
scalar tree_4_3_u04_r11_network.node[7].content_store 	hits[7] 	1978
scalar tree_4_3_u04_r11_network.node[7].content_store 	misses[7] 	49573
scalar tree_4_3_u04_r11_network.node[7].content_store 	decision_yes[7] 	49561
scalar tree_4_3_u04_r11_network.node[7].content_store 	decision_no[7] 	0
scalar tree_4_3_u04_r11_network.node[7].content_store 	decision_ratio[7] 	1
scalar tree_4_3_u04_r11_network.node[8].core_layer 	interests[8] 	22571
scalar tree_4_3_u04_r11_network.node[8].core_layer 	data[8] 	20650
scalar tree_4_3_u04_r11_network.node[8].content_store 	p_hit[8] 	0.085109210934385
scalar tree_4_3_u04_r11_network.node[8].content_store 	hits[8] 	1921
scalar tree_4_3_u04_r11_network.node[8].content_store 	misses[8] 	20650
scalar tree_4_3_u04_r11_network.node[8].content_store 	decision_yes[8] 	20648
scalar tree_4_3_u04_r11_network.node[8].content_store 	decision_no[8] 	0
scalar tree_4_3_u04_r11_network.node[8].content_store 	decision_ratio[8] 	1
scalar tree_4_3_u04_r11_network.node[9].core_layer 	interests[9] 	22512
scalar tree_4_3_u04_r11_network.node[9].core_layer 	data[9] 	20699
scalar tree_4_3_u04_r11_network.node[9].content_store 	p_hit[9] 	0.080490405117271
scalar tree_4_3_u04_r11_network.node[9].content_store 	hits[9] 	1812
scalar tree_4_3_u04_r11_network.node[9].content_store 	misses[9] 	20700
scalar tree_4_3_u04_r11_network.node[9].content_store 	decision_yes[9] 	20698
scalar tree_4_3_u04_r11_network.node[9].content_store 	decision_no[9] 	0
scalar tree_4_3_u04_r11_network.node[9].content_store 	decision_ratio[9] 	1
scalar tree_4_3_u04_r11_network.node[10].core_layer 	interests[10] 	39427
scalar tree_4_3_u04_r11_network.node[10].core_layer 	data[10] 	38218
scalar tree_4_3_u04_r11_network.node[10].content_store 	p_hit[10] 	0.030588175615695
scalar tree_4_3_u04_r11_network.node[10].content_store 	hits[10] 	1206
scalar tree_4_3_u04_r11_network.node[10].content_store 	misses[10] 	38221
scalar tree_4_3_u04_r11_network.node[10].content_store 	decision_yes[10] 	38217
scalar tree_4_3_u04_r11_network.node[10].content_store 	decision_no[10] 	0
scalar tree_4_3_u04_r11_network.node[10].content_store 	decision_ratio[10] 	1
scalar tree_4_3_u04_r11_network.node[11].core_layer 	interests[11] 	41240
scalar tree_4_3_u04_r11_network.node[11].core_layer 	data[11] 	39558
scalar tree_4_3_u04_r11_network.node[11].content_store 	p_hit[11] 	0.040712900096993
scalar tree_4_3_u04_r11_network.node[11].content_store 	hits[11] 	1679
scalar tree_4_3_u04_r11_network.node[11].content_store 	misses[11] 	39561
scalar tree_4_3_u04_r11_network.node[11].content_store 	decision_yes[11] 	39556
scalar tree_4_3_u04_r11_network.node[11].content_store 	decision_no[11] 	0
scalar tree_4_3_u04_r11_network.node[11].content_store 	decision_ratio[11] 	1
scalar tree_4_3_u04_r11_network.node[12].core_layer 	interests[12] 	12908
scalar tree_4_3_u04_r11_network.node[12].core_layer 	data[12] 	10740
scalar tree_4_3_u04_r11_network.node[12].content_store 	p_hit[12] 	0.16795785559343
scalar tree_4_3_u04_r11_network.node[12].content_store 	hits[12] 	2168
scalar tree_4_3_u04_r11_network.node[12].content_store 	misses[12] 	10740
scalar tree_4_3_u04_r11_network.node[12].content_store 	decision_yes[12] 	10740
scalar tree_4_3_u04_r11_network.node[12].content_store 	decision_no[12] 	0
scalar tree_4_3_u04_r11_network.node[12].content_store 	decision_ratio[12] 	1
scalar tree_4_3_u04_r11_network.node[13].core_layer 	interests[13] 	12843
scalar tree_4_3_u04_r11_network.node[13].core_layer 	data[13] 	10039
scalar tree_4_3_u04_r11_network.node[13].content_store 	p_hit[13] 	0.21840691427237
scalar tree_4_3_u04_r11_network.node[13].content_store 	hits[13] 	2805
scalar tree_4_3_u04_r11_network.node[13].content_store 	misses[13] 	10038
scalar tree_4_3_u04_r11_network.node[13].content_store 	decision_yes[13] 	10039
scalar tree_4_3_u04_r11_network.node[13].content_store 	decision_no[13] 	0
scalar tree_4_3_u04_r11_network.node[13].content_store 	decision_ratio[13] 	1
scalar tree_4_3_u04_r11_network.node[14].core_layer 	interests[14] 	14292
scalar tree_4_3_u04_r11_network.node[14].core_layer 	data[14] 	9897
scalar tree_4_3_u04_r11_network.node[14].content_store 	p_hit[14] 	0.30751469353484
scalar tree_4_3_u04_r11_network.node[14].content_store 	hits[14] 	4395
scalar tree_4_3_u04_r11_network.node[14].content_store 	misses[14] 	9897
scalar tree_4_3_u04_r11_network.node[14].content_store 	decision_yes[14] 	9897
scalar tree_4_3_u04_r11_network.node[14].content_store 	decision_no[14] 	0
scalar tree_4_3_u04_r11_network.node[14].content_store 	decision_ratio[14] 	1
scalar tree_4_3_u04_r11_network.node[15].core_layer 	interests[15] 	13070
scalar tree_4_3_u04_r11_network.node[15].core_layer 	data[15] 	10213
scalar tree_4_3_u04_r11_network.node[15].content_store 	p_hit[15] 	0.21851568477429
scalar tree_4_3_u04_r11_network.node[15].content_store 	hits[15] 	2856
scalar tree_4_3_u04_r11_network.node[15].content_store 	misses[15] 	10214
scalar tree_4_3_u04_r11_network.node[15].content_store 	decision_yes[15] 	10213
scalar tree_4_3_u04_r11_network.node[15].content_store 	decision_no[15] 	0
scalar tree_4_3_u04_r11_network.node[15].content_store 	decision_ratio[15] 	1
scalar tree_4_3_u04_r11_network.node[16].core_layer 	interests[16] 	14312
scalar tree_4_3_u04_r11_network.node[16].core_layer 	data[16] 	9978
scalar tree_4_3_u04_r11_network.node[16].content_store 	p_hit[16] 	0.30275293460034
scalar tree_4_3_u04_r11_network.node[16].content_store 	hits[16] 	4333
scalar tree_4_3_u04_r11_network.node[16].content_store 	misses[16] 	9979
scalar tree_4_3_u04_r11_network.node[16].content_store 	decision_yes[16] 	9978
scalar tree_4_3_u04_r11_network.node[16].content_store 	decision_no[16] 	0
scalar tree_4_3_u04_r11_network.node[16].content_store 	decision_ratio[16] 	1
scalar tree_4_3_u04_r11_network.node[17].core_layer 	interests[17] 	13317
scalar tree_4_3_u04_r11_network.node[17].core_layer 	data[17] 	10181
scalar tree_4_3_u04_r11_network.node[17].content_store 	p_hit[17] 	0.23541338139221
scalar tree_4_3_u04_r11_network.node[17].content_store 	hits[17] 	3135
scalar tree_4_3_u04_r11_network.node[17].content_store 	misses[17] 	10182
scalar tree_4_3_u04_r11_network.node[17].content_store 	decision_yes[17] 	10181
scalar tree_4_3_u04_r11_network.node[17].content_store 	decision_no[17] 	0
scalar tree_4_3_u04_r11_network.node[17].content_store 	decision_ratio[17] 	1
scalar tree_4_3_u04_r11_network.node[18].core_layer 	interests[18] 	14443
scalar tree_4_3_u04_r11_network.node[18].core_layer 	data[18] 	9981
scalar tree_4_3_u04_r11_network.node[18].content_store 	p_hit[18] 	0.30886934847331
scalar tree_4_3_u04_r11_network.node[18].content_store 	hits[18] 	4461
scalar tree_4_3_u04_r11_network.node[18].content_store 	misses[18] 	9982
scalar tree_4_3_u04_r11_network.node[18].content_store 	decision_yes[18] 	9981
scalar tree_4_3_u04_r11_network.node[18].content_store 	decision_no[18] 	0
scalar tree_4_3_u04_r11_network.node[18].content_store 	decision_ratio[18] 	1
scalar tree_4_3_u04_r11_network.node[19].core_layer 	interests[19] 	12942
scalar tree_4_3_u04_r11_network.node[19].core_layer 	data[19] 	10111
scalar tree_4_3_u04_r11_network.node[19].content_store 	p_hit[19] 	0.21874517076186
scalar tree_4_3_u04_r11_network.node[19].content_store 	hits[19] 	2831
scalar tree_4_3_u04_r11_network.node[19].content_store 	misses[19] 	10111
scalar tree_4_3_u04_r11_network.node[19].content_store 	decision_yes[19] 	10111
scalar tree_4_3_u04_r11_network.node[19].content_store 	decision_no[19] 	0
scalar tree_4_3_u04_r11_network.node[19].content_store 	decision_ratio[19] 	1
scalar tree_4_3_u04_r11_network.node[20].core_layer 	interests[20] 	12936
scalar tree_4_3_u04_r11_network.node[20].core_layer 	data[20] 	10030
scalar tree_4_3_u04_r11_network.node[20].content_store 	p_hit[20] 	0.2245670995671
scalar tree_4_3_u04_r11_network.node[20].content_store 	hits[20] 	2905
scalar tree_4_3_u04_r11_network.node[20].content_store 	misses[20] 	10031
scalar tree_4_3_u04_r11_network.node[20].content_store 	decision_yes[20] 	10030
scalar tree_4_3_u04_r11_network.node[20].content_store 	decision_no[20] 	0
scalar tree_4_3_u04_r11_network.node[20].content_store 	decision_ratio[20] 	1
scalar tree_4_3_u04_r11_network.node[21].core_layer 	interests[21] 	12904
scalar tree_4_3_u04_r11_network.node[21].core_layer 	data[21] 	10164
scalar tree_4_3_u04_r11_network.node[21].content_store 	p_hit[21] 	0.21233725976441
scalar tree_4_3_u04_r11_network.node[21].content_store 	hits[21] 	2740
scalar tree_4_3_u04_r11_network.node[21].content_store 	misses[21] 	10164
scalar tree_4_3_u04_r11_network.node[21].content_store 	decision_yes[21] 	10164
scalar tree_4_3_u04_r11_network.node[21].content_store 	decision_no[21] 	0
scalar tree_4_3_u04_r11_network.node[21].content_store 	decision_ratio[21] 	1
scalar tree_4_3_u04_r11_network.node[22].core_layer 	interests[22] 	13220
scalar tree_4_3_u04_r11_network.node[22].core_layer 	data[22] 	9987
scalar tree_4_3_u04_r11_network.node[22].content_store 	p_hit[22] 	0.2446293494705
scalar tree_4_3_u04_r11_network.node[22].content_store 	hits[22] 	3234
scalar tree_4_3_u04_r11_network.node[22].content_store 	misses[22] 	9986
scalar tree_4_3_u04_r11_network.node[22].content_store 	decision_yes[22] 	9987
scalar tree_4_3_u04_r11_network.node[22].content_store 	decision_no[22] 	0
scalar tree_4_3_u04_r11_network.node[22].content_store 	decision_ratio[22] 	1
scalar tree_4_3_u04_r11_network.node[23].core_layer 	interests[23] 	13234
scalar tree_4_3_u04_r11_network.node[23].core_layer 	data[23] 	10099
scalar tree_4_3_u04_r11_network.node[23].content_store 	p_hit[23] 	0.23681426628381
scalar tree_4_3_u04_r11_network.node[23].content_store 	hits[23] 	3134
scalar tree_4_3_u04_r11_network.node[23].content_store 	misses[23] 	10100
scalar tree_4_3_u04_r11_network.node[23].content_store 	decision_yes[23] 	10099
scalar tree_4_3_u04_r11_network.node[23].content_store 	decision_no[23] 	0
scalar tree_4_3_u04_r11_network.node[23].content_store 	decision_ratio[23] 	1
scalar tree_4_3_u04_r11_network.node[24].core_layer 	interests[24] 	13377
scalar tree_4_3_u04_r11_network.node[24].core_layer 	data[24] 	9960
scalar tree_4_3_u04_r11_network.node[24].content_store 	p_hit[24] 	0.25543843911191
scalar tree_4_3_u04_r11_network.node[24].content_store 	hits[24] 	3417
scalar tree_4_3_u04_r11_network.node[24].content_store 	misses[24] 	9960
scalar tree_4_3_u04_r11_network.node[24].content_store 	decision_yes[24] 	9960
scalar tree_4_3_u04_r11_network.node[24].content_store 	decision_no[24] 	0
scalar tree_4_3_u04_r11_network.node[24].content_store 	decision_ratio[24] 	1
scalar tree_4_3_u04_r11_network.node[25].core_layer 	interests[25] 	14232
scalar tree_4_3_u04_r11_network.node[25].core_layer 	data[25] 	9974
scalar tree_4_3_u04_r11_network.node[25].content_store 	p_hit[25] 	0.29918493535694
scalar tree_4_3_u04_r11_network.node[25].content_store 	hits[25] 	4258
scalar tree_4_3_u04_r11_network.node[25].content_store 	misses[25] 	9974
scalar tree_4_3_u04_r11_network.node[25].content_store 	decision_yes[25] 	9974
scalar tree_4_3_u04_r11_network.node[25].content_store 	decision_no[25] 	0
scalar tree_4_3_u04_r11_network.node[25].content_store 	decision_ratio[25] 	1
scalar tree_4_3_u04_r11_network.node[26].core_layer 	interests[26] 	12721
scalar tree_4_3_u04_r11_network.node[26].core_layer 	data[26] 	10024
scalar tree_4_3_u04_r11_network.node[26].content_store 	p_hit[26] 	0.21193302413332
scalar tree_4_3_u04_r11_network.node[26].content_store 	hits[26] 	2696
scalar tree_4_3_u04_r11_network.node[26].content_store 	misses[26] 	10025
scalar tree_4_3_u04_r11_network.node[26].content_store 	decision_yes[26] 	10024
scalar tree_4_3_u04_r11_network.node[26].content_store 	decision_no[26] 	0
scalar tree_4_3_u04_r11_network.node[26].content_store 	decision_ratio[26] 	1
scalar tree_4_3_u04_r11_network.node[27].core_layer 	interests[27] 	12766
scalar tree_4_3_u04_r11_network.node[27].core_layer 	data[27] 	10174
scalar tree_4_3_u04_r11_network.node[27].content_store 	p_hit[27] 	0.20296099013003
scalar tree_4_3_u04_r11_network.node[27].content_store 	hits[27] 	2591
scalar tree_4_3_u04_r11_network.node[27].content_store 	misses[27] 	10175
scalar tree_4_3_u04_r11_network.node[27].content_store 	decision_yes[27] 	10174
scalar tree_4_3_u04_r11_network.node[27].content_store 	decision_no[27] 	0
scalar tree_4_3_u04_r11_network.node[27].content_store 	decision_ratio[27] 	1
scalar tree_4_3_u04_r11_network.node[28].core_layer 	interests[28] 	14144
scalar tree_4_3_u04_r11_network.node[28].core_layer 	data[28] 	9909
scalar tree_4_3_u04_r11_network.node[28].content_store 	p_hit[28] 	0.29934954751131
scalar tree_4_3_u04_r11_network.node[28].content_store 	hits[28] 	4234
scalar tree_4_3_u04_r11_network.node[28].content_store 	misses[28] 	9910
scalar tree_4_3_u04_r11_network.node[28].content_store 	decision_yes[28] 	9909
scalar tree_4_3_u04_r11_network.node[28].content_store 	decision_no[28] 	0
scalar tree_4_3_u04_r11_network.node[28].content_store 	decision_ratio[28] 	1
scalar tree_4_3_u04_r11_network.node[29].core_layer 	interests[29] 	12596
scalar tree_4_3_u04_r11_network.node[29].core_layer 	data[29] 	9947
scalar tree_4_3_u04_r11_network.node[29].content_store 	p_hit[29] 	0.21022546840267
scalar tree_4_3_u04_r11_network.node[29].content_store 	hits[29] 	2648
scalar tree_4_3_u04_r11_network.node[29].content_store 	misses[29] 	9948
scalar tree_4_3_u04_r11_network.node[29].content_store 	decision_yes[29] 	9947
scalar tree_4_3_u04_r11_network.node[29].content_store 	decision_no[29] 	0
scalar tree_4_3_u04_r11_network.node[29].content_store 	decision_ratio[29] 	1
scalar tree_4_3_u04_r11_network.node[30].core_layer 	interests[30] 	12844
scalar tree_4_3_u04_r11_network.node[30].core_layer 	data[30] 	10254
scalar tree_4_3_u04_r11_network.node[30].content_store 	p_hit[30] 	0.2016505761445
scalar tree_4_3_u04_r11_network.node[30].content_store 	hits[30] 	2590
scalar tree_4_3_u04_r11_network.node[30].content_store 	misses[30] 	10254
scalar tree_4_3_u04_r11_network.node[30].content_store 	decision_yes[30] 	10254
scalar tree_4_3_u04_r11_network.node[30].content_store 	decision_no[30] 	0
scalar tree_4_3_u04_r11_network.node[30].content_store 	decision_ratio[30] 	1
scalar tree_4_3_u04_r11_network.node[31].core_layer 	interests[31] 	12985
scalar tree_4_3_u04_r11_network.node[31].core_layer 	data[31] 	10097
scalar tree_4_3_u04_r11_network.node[31].content_store 	p_hit[31] 	0.22233346168656
scalar tree_4_3_u04_r11_network.node[31].content_store 	hits[31] 	2887
scalar tree_4_3_u04_r11_network.node[31].content_store 	misses[31] 	10098
scalar tree_4_3_u04_r11_network.node[31].content_store 	decision_yes[31] 	10097
scalar tree_4_3_u04_r11_network.node[31].content_store 	decision_no[31] 	0
scalar tree_4_3_u04_r11_network.node[31].content_store 	decision_ratio[31] 	1
scalar tree_4_3_u04_r11_network.node[32].core_layer 	interests[32] 	14025
scalar tree_4_3_u04_r11_network.node[32].core_layer 	data[32] 	10081
scalar tree_4_3_u04_r11_network.node[32].content_store 	p_hit[32] 	0.28114081996435
scalar tree_4_3_u04_r11_network.node[32].content_store 	hits[32] 	3943
scalar tree_4_3_u04_r11_network.node[32].content_store 	misses[32] 	10082
scalar tree_4_3_u04_r11_network.node[32].content_store 	decision_yes[32] 	10081
scalar tree_4_3_u04_r11_network.node[32].content_store 	decision_no[32] 	0
scalar tree_4_3_u04_r11_network.node[32].content_store 	decision_ratio[32] 	1
scalar tree_4_3_u04_r11_network.node[33].core_layer 	interests[33] 	12752
scalar tree_4_3_u04_r11_network.node[33].core_layer 	data[33] 	9968
scalar tree_4_3_u04_r11_network.node[33].content_store 	p_hit[33] 	0.21831869510665
scalar tree_4_3_u04_r11_network.node[33].content_store 	hits[33] 	2784
scalar tree_4_3_u04_r11_network.node[33].content_store 	misses[33] 	9968
scalar tree_4_3_u04_r11_network.node[33].content_store 	decision_yes[33] 	9968
scalar tree_4_3_u04_r11_network.node[33].content_store 	decision_no[33] 	0
scalar tree_4_3_u04_r11_network.node[33].content_store 	decision_ratio[33] 	1
scalar tree_4_3_u04_r11_network.node[34].core_layer 	interests[34] 	13197
scalar tree_4_3_u04_r11_network.node[34].core_layer 	data[34] 	10260
scalar tree_4_3_u04_r11_network.node[34].content_store 	p_hit[34] 	0.22239903008259
scalar tree_4_3_u04_r11_network.node[34].content_store 	hits[34] 	2935
scalar tree_4_3_u04_r11_network.node[34].content_store 	misses[34] 	10262
scalar tree_4_3_u04_r11_network.node[34].content_store 	decision_yes[34] 	10260
scalar tree_4_3_u04_r11_network.node[34].content_store 	decision_no[34] 	0
scalar tree_4_3_u04_r11_network.node[34].content_store 	decision_ratio[34] 	1
scalar tree_4_3_u04_r11_network.node[35].core_layer 	interests[35] 	12884
scalar tree_4_3_u04_r11_network.node[35].core_layer 	data[35] 	10018
scalar tree_4_3_u04_r11_network.node[35].content_store 	p_hit[35] 	0.22221359826141
scalar tree_4_3_u04_r11_network.node[35].content_store 	hits[35] 	2863
scalar tree_4_3_u04_r11_network.node[35].content_store 	misses[35] 	10021
scalar tree_4_3_u04_r11_network.node[35].content_store 	decision_yes[35] 	10018
scalar tree_4_3_u04_r11_network.node[35].content_store 	decision_no[35] 	0
scalar tree_4_3_u04_r11_network.node[35].content_store 	decision_ratio[35] 	1
scalar tree_4_3_u04_r11_network.node[36].core_layer 	interests[36] 	13410
scalar tree_4_3_u04_r11_network.node[36].core_layer 	data[36] 	10087
scalar tree_4_3_u04_r11_network.node[36].content_store 	p_hit[36] 	0.24780014914243
scalar tree_4_3_u04_r11_network.node[36].content_store 	hits[36] 	3323
scalar tree_4_3_u04_r11_network.node[36].content_store 	misses[36] 	10087
scalar tree_4_3_u04_r11_network.node[36].content_store 	decision_yes[36] 	10087
scalar tree_4_3_u04_r11_network.node[36].content_store 	decision_no[36] 	0
scalar tree_4_3_u04_r11_network.node[36].content_store 	decision_ratio[36] 	1
scalar tree_4_3_u04_r11_network.node[37].core_layer 	interests[37] 	13449
scalar tree_4_3_u04_r11_network.node[37].core_layer 	data[37] 	9850
scalar tree_4_3_u04_r11_network.node[37].content_store 	p_hit[37] 	0.2676035392966
scalar tree_4_3_u04_r11_network.node[37].content_store 	hits[37] 	3599
scalar tree_4_3_u04_r11_network.node[37].content_store 	misses[37] 	9850
scalar tree_4_3_u04_r11_network.node[37].content_store 	decision_yes[37] 	9850
scalar tree_4_3_u04_r11_network.node[37].content_store 	decision_no[37] 	0
scalar tree_4_3_u04_r11_network.node[37].content_store 	decision_ratio[37] 	1
scalar tree_4_3_u04_r11_network.node[38].core_layer 	interests[38] 	13487
scalar tree_4_3_u04_r11_network.node[38].core_layer 	data[38] 	9969
scalar tree_4_3_u04_r11_network.node[38].content_store 	p_hit[38] 	0.26084377548751
scalar tree_4_3_u04_r11_network.node[38].content_store 	hits[38] 	3518
scalar tree_4_3_u04_r11_network.node[38].content_store 	misses[38] 	9969
scalar tree_4_3_u04_r11_network.node[38].content_store 	decision_yes[38] 	9969
scalar tree_4_3_u04_r11_network.node[38].content_store 	decision_no[38] 	0
scalar tree_4_3_u04_r11_network.node[38].content_store 	decision_ratio[38] 	1
scalar tree_4_3_u04_r11_network.node[39].core_layer 	interests[39] 	12056
scalar tree_4_3_u04_r11_network.node[39].core_layer 	data[39] 	10046
scalar tree_4_3_u04_r11_network.node[39].content_store 	p_hit[39] 	0.16672196416722
scalar tree_4_3_u04_r11_network.node[39].content_store 	hits[39] 	2010
scalar tree_4_3_u04_r11_network.node[39].content_store 	misses[39] 	10046
scalar tree_4_3_u04_r11_network.node[39].content_store 	decision_yes[39] 	10046
scalar tree_4_3_u04_r11_network.node[39].content_store 	decision_no[39] 	0
scalar tree_4_3_u04_r11_network.node[39].content_store 	decision_ratio[39] 	1
scalar tree_4_3_u04_r11_network.client[13] 	hdistance[13] 	3.0985172153808
scalar tree_4_3_u04_r11_network.client[13] 	downloads[13] 	11937
scalar tree_4_3_u04_r11_network.client[13] 	avg_time[13] 	0.00484074428
scalar tree_4_3_u04_r11_network.client[14] 	hdistance[14] 	2.9748701625063
scalar tree_4_3_u04_r11_network.client[14] 	downloads[14] 	11938
scalar tree_4_3_u04_r11_network.client[14] 	avg_time[14] 	0.004697601287
scalar tree_4_3_u04_r11_network.client[15] 	hdistance[15] 	3.1164960369881
scalar tree_4_3_u04_r11_network.client[15] 	downloads[15] 	12112
scalar tree_4_3_u04_r11_network.client[15] 	avg_time[15] 	0.004876594259
scalar tree_4_3_u04_r11_network.client[16] 	hdistance[16] 	2.9729279466889
scalar tree_4_3_u04_r11_network.client[16] 	downloads[16] 	12005
scalar tree_4_3_u04_r11_network.client[16] 	avg_time[16] 	0.004694874139
scalar tree_4_3_u04_r11_network.client[17] 	hdistance[17] 	3.0511171572265
scalar tree_4_3_u04_r11_network.client[17] 	downloads[17] 	12129
scalar tree_4_3_u04_r11_network.client[17] 	avg_time[17] 	0.004847599355
scalar tree_4_3_u04_r11_network.client[18] 	hdistance[18] 	2.969932998325
scalar tree_4_3_u04_r11_network.client[18] 	downloads[18] 	11940
scalar tree_4_3_u04_r11_network.client[18] 	avg_time[18] 	0.004674871389
scalar tree_4_3_u04_r11_network.client[19] 	hdistance[19] 	3.0964992137714
scalar tree_4_3_u04_r11_network.client[19] 	downloads[19] 	12083
scalar tree_4_3_u04_r11_network.client[19] 	avg_time[19] 	0.004834827452
scalar tree_4_3_u04_r11_network.client[20] 	hdistance[20] 	3.0911745078412
scalar tree_4_3_u04_r11_network.client[20] 	downloads[20] 	11988
scalar tree_4_3_u04_r11_network.client[20] 	avg_time[20] 	0.004831489345
scalar tree_4_3_u04_r11_network.client[21] 	hdistance[21] 	3.1219512195122
scalar tree_4_3_u04_r11_network.client[21] 	downloads[21] 	12054
scalar tree_4_3_u04_r11_network.client[21] 	avg_time[21] 	0.004876685655
scalar tree_4_3_u04_r11_network.client[22] 	hdistance[22] 	3.0527021365731
scalar tree_4_3_u04_r11_network.client[22] 	downloads[22] 	11935
scalar tree_4_3_u04_r11_network.client[22] 	avg_time[22] 	0.004796248643
scalar tree_4_3_u04_r11_network.client[23] 	hdistance[23] 	3.087127224125
scalar tree_4_3_u04_r11_network.client[23] 	downloads[23] 	11971
scalar tree_4_3_u04_r11_network.client[23] 	avg_time[23] 	0.004849007086
scalar tree_4_3_u04_r11_network.client[24] 	hdistance[24] 	3.0552347476776
scalar tree_4_3_u04_r11_network.client[24] 	downloads[24] 	11949
scalar tree_4_3_u04_r11_network.client[24] 	avg_time[24] 	0.004799284822
scalar tree_4_3_u04_r11_network.client[25] 	hdistance[25] 	2.9779845476448
scalar tree_4_3_u04_r11_network.client[25] 	downloads[25] 	12037
scalar tree_4_3_u04_r11_network.client[25] 	avg_time[25] 	0.00465333604
scalar tree_4_3_u04_r11_network.client[26] 	hdistance[26] 	3.1069969143524
scalar tree_4_3_u04_r11_network.client[26] 	downloads[26] 	11991
scalar tree_4_3_u04_r11_network.client[26] 	avg_time[26] 	0.004916210082
scalar tree_4_3_u04_r11_network.client[27] 	hdistance[27] 	3.1298057048367
scalar tree_4_3_u04_r11_network.client[27] 	downloads[27] 	12095
scalar tree_4_3_u04_r11_network.client[27] 	avg_time[27] 	0.004950771075
scalar tree_4_3_u04_r11_network.client[28] 	hdistance[28] 	2.9687943262411
scalar tree_4_3_u04_r11_network.client[28] 	downloads[28] 	11985
scalar tree_4_3_u04_r11_network.client[28] 	avg_time[28] 	0.004643305396
scalar tree_4_3_u04_r11_network.client[29] 	hdistance[29] 	3.1176520199038
scalar tree_4_3_u04_r11_network.client[29] 	downloads[29] 	11857
scalar tree_4_3_u04_r11_network.client[29] 	avg_time[29] 	0.004930099418
scalar tree_4_3_u04_r11_network.client[30] 	hdistance[30] 	3.154404486968
scalar tree_4_3_u04_r11_network.client[30] 	downloads[30] 	12124
scalar tree_4_3_u04_r11_network.client[30] 	avg_time[30] 	0.004985181129
scalar tree_4_3_u04_r11_network.client[31] 	hdistance[31] 	3.087352892425
scalar tree_4_3_u04_r11_network.client[31] 	downloads[31] 	12066
scalar tree_4_3_u04_r11_network.client[31] 	avg_time[31] 	0.004817291743
scalar tree_4_3_u04_r11_network.client[32] 	hdistance[32] 	3.0010739363899
scalar tree_4_3_u04_r11_network.client[32] 	downloads[32] 	12105
scalar tree_4_3_u04_r11_network.client[32] 	avg_time[32] 	0.004634562413
scalar tree_4_3_u04_r11_network.client[33] 	hdistance[33] 	3.109836342163
scalar tree_4_3_u04_r11_network.client[33] 	downloads[33] 	11854
scalar tree_4_3_u04_r11_network.client[33] 	avg_time[33] 	0.00485828265
scalar tree_4_3_u04_r11_network.client[34] 	hdistance[34] 	3.0908867600098
scalar tree_4_3_u04_r11_network.client[34] 	downloads[34] 	12213
scalar tree_4_3_u04_r11_network.client[34] 	avg_time[34] 	0.004805532044
scalar tree_4_3_u04_r11_network.client[35] 	hdistance[35] 	3.096798652064
scalar tree_4_3_u04_r11_network.client[35] 	downloads[35] 	11870
scalar tree_4_3_u04_r11_network.client[35] 	avg_time[35] 	0.004825995062
scalar tree_4_3_u04_r11_network.client[36] 	hdistance[36] 	3.0320721623653
scalar tree_4_3_u04_r11_network.client[36] 	downloads[36] 	11973
scalar tree_4_3_u04_r11_network.client[36] 	avg_time[36] 	0.00468723945
scalar tree_4_3_u04_r11_network.client[37] 	hdistance[37] 	3.0152185002551
scalar tree_4_3_u04_r11_network.client[37] 	downloads[37] 	11762
scalar tree_4_3_u04_r11_network.client[37] 	avg_time[37] 	0.004665253724
scalar tree_4_3_u04_r11_network.client[38] 	hdistance[38] 	3.0098039215686
scalar tree_4_3_u04_r11_network.client[38] 	downloads[38] 	11934
scalar tree_4_3_u04_r11_network.client[38] 	avg_time[38] 	0.004646962052
scalar tree_4_3_u04_r11_network.client[39] 	hdistance[39] 	3.1457472814634
scalar tree_4_3_u04_r11_network.client[39] 	downloads[39] 	11863
scalar tree_4_3_u04_r11_network.client[39] 	avg_time[39] 	0.004908367602
