version 2
run General-38-20160823-13:04:37-12979
attr D wfc0.05
attr F nrr
attr R lru
attr a 0.8
attr configname General
attr datetime 20160823-13:04:37
attr experiment General
attr inifile hw5115/scenario_B/bus.ini
attr iterationvars "$net=bus, $rep=0, $a=0.8, $F=nrr, $D=wfc0.05, $R=lru, $window=60, $variance=0.05, $mytime=600, $test=test"
attr iterationvars2 "$net=bus, $rep=0, $a=0.8, $F=nrr, $D=wfc0.05, $R=lru, $window=60, $variance=0.05, $mytime=600, $test=test, $repetition=0"
attr measurement "$net=bus, $rep=0, $a=0.8, $F=nrr, $D=wfc0.05, $R=lru, $window=60, $variance=0.05, $mytime=600, $test=test"
attr mytime 600
attr net bus
attr network networks.${net=bus}_network
attr processid 12979
attr rep 0
attr repetition 0
attr replication #0
attr resultdir results
attr runnumber 38
attr seedset 0
attr test test
attr variance 0.05
attr window 60

scalar . 	a 	0.8
scalar . 	mytime 	600
scalar . 	rep 	0
scalar . 	variance 	0.05
scalar . 	window 	60
scalar bus_network.content_distribution 	repo-0 	9
scalar bus_network.content_distribution 	client-0 	5
scalar bus_network.content_distribution 	client-1 	8
scalar bus_network.content_distribution 	client-2 	9
scalar bus_network.content_distribution 	client-3 	0
scalar bus_network.content_distribution 	client-4 	1
scalar bus_network.content_distribution 	client-5 	7
scalar bus_network.content_distribution 	client-6 	6
scalar bus_network.content_distribution 	client-7 	2
scalar bus_network.content_distribution 	client-8 	4
scalar bus_network.content_distribution 	client-9 	3
scalar bus_network.content_distribution 	repo-0_card 	100000
scalar bus_network.content_distribution 	repo-0_price 	0
scalar bus_network.statistics 	stabilization_time 	1078.4
scalar bus_network.statistics 	p_hit 	0.059156207645482
scalar bus_network.statistics 	interests 	57257.8
scalar bus_network.statistics 	data 	45252.3
scalar bus_network.statistics 	hdistance 	4.5912579879124
scalar bus_network.statistics 	avg_time 	0.00754931483
scalar bus_network.statistics 	downloads 	120044
scalar bus_network.statistics 	total_cost 	0
scalar bus_network.statistics 	total_replicas 	100000
scalar bus_network.statistics 	inner_hit 	0.18342441104928
scalar bus_network.node[0].core_layer 	interests[0] 	12628
scalar bus_network.node[0].core_layer 	data[0] 	10400
scalar bus_network.node[0].core_layer 	repo_int[0] 	98025
scalar bus_network.node[0].content_store 	p_hit[0] 	0.17635413367121
scalar bus_network.node[0].content_store 	hits[0] 	2227
scalar bus_network.node[0].content_store 	misses[0] 	10401
scalar bus_network.node[0].content_store 	decision_yes[0] 	577
scalar bus_network.node[0].content_store 	decision_no[0] 	9823
scalar bus_network.node[0].content_store 	decision_ratio[0] 	0.055480769230769
scalar bus_network.node[1].core_layer 	interests[1] 	23629
scalar bus_network.node[1].core_layer 	data[1] 	21039
scalar bus_network.node[1].content_store 	p_hit[1] 	0.10961107114139
scalar bus_network.node[1].content_store 	hits[1] 	2590
scalar bus_network.node[1].content_store 	misses[1] 	21039
scalar bus_network.node[1].content_store 	decision_yes[1] 	1135
scalar bus_network.node[1].content_store 	decision_no[1] 	19904
scalar bus_network.node[1].content_store 	decision_ratio[1] 	0.053947430961548
scalar bus_network.node[2].core_layer 	interests[2] 	34027
scalar bus_network.node[2].core_layer 	data[2] 	31411
scalar bus_network.node[2].content_store 	p_hit[2] 	0.076821347753255
scalar bus_network.node[2].content_store 	hits[2] 	2614
scalar bus_network.node[2].content_store 	misses[2] 	31413
scalar bus_network.node[2].content_store 	decision_yes[2] 	1677
scalar bus_network.node[2].content_store 	decision_no[2] 	29734
scalar bus_network.node[2].content_store 	decision_ratio[2] 	0.053388940180192
scalar bus_network.node[3].core_layer 	interests[3] 	44267
scalar bus_network.node[3].core_layer 	data[3] 	41613
scalar bus_network.node[3].content_store 	p_hit[3] 	0.059886597239479
scalar bus_network.node[3].content_store 	hits[3] 	2651
scalar bus_network.node[3].content_store 	misses[3] 	41616
scalar bus_network.node[3].content_store 	decision_yes[3] 	2217
scalar bus_network.node[3].content_store 	decision_no[3] 	39396
scalar bus_network.node[3].content_store 	decision_ratio[3] 	0.05327662028693
scalar bus_network.node[4].core_layer 	interests[4] 	53691
scalar bus_network.node[4].core_layer 	data[4] 	51230
scalar bus_network.node[4].content_store 	p_hit[4] 	0.045799109720437
scalar bus_network.node[4].content_store 	hits[4] 	2459
scalar bus_network.node[4].content_store 	misses[4] 	51232
scalar bus_network.node[4].content_store 	decision_yes[4] 	2640
scalar bus_network.node[4].content_store 	decision_no[4] 	48590
scalar bus_network.node[4].content_store 	decision_ratio[4] 	0.051532305289869
scalar bus_network.node[5].core_layer 	interests[5] 	62741
scalar bus_network.node[5].core_layer 	data[5] 	60510
scalar bus_network.node[5].content_store 	p_hit[5] 	0.035527007857701
scalar bus_network.node[5].content_store 	hits[5] 	2229
scalar bus_network.node[5].content_store 	misses[5] 	60512
scalar bus_network.node[5].content_store 	decision_yes[5] 	3089
scalar bus_network.node[5].content_store 	decision_no[5] 	57421
scalar bus_network.node[5].content_store 	decision_ratio[5] 	0.051049413320112
scalar bus_network.node[6].core_layer 	interests[6] 	71590
scalar bus_network.node[6].core_layer 	data[6] 	69366
scalar bus_network.node[6].content_store 	p_hit[6] 	0.031037854448945
scalar bus_network.node[6].content_store 	hits[6] 	2222
scalar bus_network.node[6].content_store 	misses[6] 	69368
scalar bus_network.node[6].content_store 	decision_yes[6] 	3480
scalar bus_network.node[6].content_store 	decision_no[6] 	65886
scalar bus_network.node[6].content_store 	decision_ratio[6] 	0.050168670530231
scalar bus_network.node[7].core_layer 	interests[7] 	80612
scalar bus_network.node[7].core_layer 	data[7] 	78727
scalar bus_network.node[7].content_store 	p_hit[7] 	0.023346400039696
scalar bus_network.node[7].content_store 	hits[7] 	1882
scalar bus_network.node[7].content_store 	misses[7] 	78730
scalar bus_network.node[7].content_store 	decision_yes[7] 	4053
scalar bus_network.node[7].content_store 	decision_no[7] 	74674
scalar bus_network.node[7].content_store 	decision_ratio[7] 	0.051481702592503
scalar bus_network.node[8].core_layer 	interests[8] 	89744
scalar bus_network.node[8].core_layer 	data[8] 	88227
scalar bus_network.node[8].content_store 	p_hit[8] 	0.016881351399536
scalar bus_network.node[8].content_store 	hits[8] 	1515
scalar bus_network.node[8].content_store 	misses[8] 	88229
scalar bus_network.node[8].content_store 	decision_yes[8] 	4444
scalar bus_network.node[8].content_store 	decision_no[8] 	83783
scalar bus_network.node[8].content_store 	decision_ratio[8] 	0.050370068119737
scalar bus_network.node[9].core_layer 	interests[9] 	99649
scalar bus_network.node[9].core_layer 	repo_load[9] 	98025
scalar bus_network.node[9].core_layer 	data[9] 	0
scalar bus_network.node[9].content_store 	p_hit[9] 	0.016297203183173
scalar bus_network.node[9].content_store 	hits[9] 	1624
scalar bus_network.node[9].content_store 	misses[9] 	98025
scalar bus_network.node[9].content_store 	decision_yes[9] 	5567
scalar bus_network.node[9].content_store 	decision_no[9] 	92458
scalar bus_network.node[9].content_store 	decision_ratio[9] 	0.056791634787044
scalar bus_network.client[0] 	hdistance[0] 	8.1936404060743
scalar bus_network.client[0] 	downloads[0] 	11919
scalar bus_network.client[0] 	avg_time[0] 	0.014813152481
scalar bus_network.client[1] 	hdistance[1] 	7.303850329909
scalar bus_network.client[1] 	downloads[1] 	11973
scalar bus_network.client[1] 	avg_time[1] 	0.013044513837
scalar bus_network.client[2] 	hdistance[2] 	6.5778613199666
scalar bus_network.client[2] 	downloads[2] 	11970
scalar bus_network.client[2] 	avg_time[2] 	0.01157276227
scalar bus_network.client[3] 	hdistance[3] 	5.7453768389907
scalar bus_network.client[3] 	downloads[3] 	12167
scalar bus_network.client[3] 	avg_time[3] 	0.009917189761
scalar bus_network.client[4] 	hdistance[4] 	4.9923632091306
scalar bus_network.client[4] 	downloads[4] 	11916
scalar bus_network.client[4] 	avg_time[4] 	0.008406005734
scalar bus_network.client[5] 	hdistance[5] 	4.2018775442386
scalar bus_network.client[5] 	downloads[5] 	12037
scalar bus_network.client[5] 	avg_time[5] 	0.006841099072
scalar bus_network.client[6] 	hdistance[6] 	3.4666498867355
scalar bus_network.client[6] 	downloads[6] 	11919
scalar bus_network.client[6] 	avg_time[6] 	0.005322449635
scalar bus_network.client[7] 	hdistance[7] 	2.6624293785311
scalar bus_network.client[7] 	downloads[7] 	12036
scalar bus_network.client[7] 	avg_time[7] 	0.003659496818
scalar bus_network.client[8] 	hdistance[8] 	1.8261482341237
scalar bus_network.client[8] 	downloads[8] 	12062
scalar bus_network.client[8] 	avg_time[8] 	0.001916478693
scalar bus_network.client[9] 	hdistance[9] 	0.94238273142383
scalar bus_network.client[9] 	downloads[9] 	12045
scalar bus_network.client[9] 	avg_time[9] 	0
