version 2
run General-135-20160820-09:30:47-856
attr a 0.9
attr cd lcd
attr configname General
attr cr lru
attr datetime 20160820-09:30:47
attr experiment General
attr fsize 1
attr inifile hw5115/scenario_A/SPR-LCD.ini
attr iterationvars "$name=tree_4_3, $un=06, $rep=16, $cd=lcd, $cr=lru, $fsize=1, $a=0.9, $sl=spr, $ttl=1000, $variance=0.05"
attr iterationvars2 "$name=tree_4_3, $un=06, $rep=16, $cd=lcd, $cr=lru, $fsize=1, $a=0.9, $sl=spr, $ttl=1000, $variance=0.05, $repetition=0"
attr measurement "$name=tree_4_3, $un=06, $rep=16, $cd=lcd, $cr=lru, $fsize=1, $a=0.9, $sl=spr, $ttl=1000, $variance=0.05"
attr name tree_4_3
attr network networks.${name}_u${un}_r${rep}_network
attr processid 856
attr rep 16
attr repetition 0
attr replication #0
attr resultdir results
attr runnumber 135
attr seedset 16
attr sl spr
attr ttl 1000
attr un 06
attr variance 0.05

scalar . 	a 	0.9
scalar . 	fsize 	1
scalar . 	rep 	16
scalar . 	ttl 	1000
scalar . 	un 	06
scalar . 	variance 	0.05
scalar tree_4_3_u06_r16_network.content_distribution 	repo-0 	0
scalar tree_4_3_u06_r16_network.content_distribution 	client-0 	13
scalar tree_4_3_u06_r16_network.content_distribution 	client-1 	14
scalar tree_4_3_u06_r16_network.content_distribution 	client-2 	15
scalar tree_4_3_u06_r16_network.content_distribution 	client-3 	16
scalar tree_4_3_u06_r16_network.content_distribution 	client-4 	17
scalar tree_4_3_u06_r16_network.content_distribution 	client-5 	18
scalar tree_4_3_u06_r16_network.content_distribution 	client-6 	19
scalar tree_4_3_u06_r16_network.content_distribution 	client-7 	20
scalar tree_4_3_u06_r16_network.content_distribution 	client-8 	21
scalar tree_4_3_u06_r16_network.content_distribution 	client-9 	22
scalar tree_4_3_u06_r16_network.content_distribution 	client-10 	23
scalar tree_4_3_u06_r16_network.content_distribution 	client-11 	24
scalar tree_4_3_u06_r16_network.content_distribution 	client-12 	25
scalar tree_4_3_u06_r16_network.content_distribution 	client-13 	26
scalar tree_4_3_u06_r16_network.content_distribution 	client-14 	27
scalar tree_4_3_u06_r16_network.content_distribution 	client-15 	28
scalar tree_4_3_u06_r16_network.content_distribution 	client-16 	29
scalar tree_4_3_u06_r16_network.content_distribution 	client-17 	30
scalar tree_4_3_u06_r16_network.content_distribution 	client-18 	31
scalar tree_4_3_u06_r16_network.content_distribution 	client-19 	32
scalar tree_4_3_u06_r16_network.content_distribution 	client-20 	33
scalar tree_4_3_u06_r16_network.content_distribution 	client-21 	34
scalar tree_4_3_u06_r16_network.content_distribution 	client-22 	35
scalar tree_4_3_u06_r16_network.content_distribution 	client-23 	36
scalar tree_4_3_u06_r16_network.content_distribution 	client-24 	37
scalar tree_4_3_u06_r16_network.content_distribution 	client-25 	38
scalar tree_4_3_u06_r16_network.content_distribution 	client-26 	39
scalar tree_4_3_u06_r16_network.content_distribution 	repo-0_card 	100000
scalar tree_4_3_u06_r16_network.content_distribution 	repo-0_price 	0
scalar tree_4_3_u06_r16_network.statistics 	stabilization_time 	5095.6
scalar tree_4_3_u06_r16_network.statistics 	p_hit 	0.18826369145074
scalar tree_4_3_u06_r16_network.statistics 	interests 	25408.5
scalar tree_4_3_u06_r16_network.statistics 	data 	17315.55
scalar tree_4_3_u06_r16_network.statistics 	hdistance 	2.828967942024
scalar tree_4_3_u06_r16_network.statistics 	avg_time 	0.004279214717
scalar tree_4_3_u06_r16_network.statistics 	downloads 	323714
scalar tree_4_3_u06_r16_network.statistics 	total_cost 	0
scalar tree_4_3_u06_r16_network.statistics 	total_replicas 	100000
scalar tree_4_3_u06_r16_network.statistics 	inner_hit 	0.31070018596662
scalar tree_4_3_u06_r16_network.node[0].core_layer 	interests[0] 	225366
scalar tree_4_3_u06_r16_network.node[0].core_layer 	repo_load[0] 	223136
scalar tree_4_3_u06_r16_network.node[0].core_layer 	data[0] 	0
scalar tree_4_3_u06_r16_network.node[0].core_layer 	repo_int[0] 	223136
scalar tree_4_3_u06_r16_network.node[0].content_store 	p_hit[0] 	0.0098950152196871
scalar tree_4_3_u06_r16_network.node[0].content_store 	hits[0] 	2230
scalar tree_4_3_u06_r16_network.node[0].content_store 	misses[0] 	223136
scalar tree_4_3_u06_r16_network.node[0].content_store 	decision_yes[0] 	223136
scalar tree_4_3_u06_r16_network.node[0].content_store 	decision_no[0] 	0
scalar tree_4_3_u06_r16_network.node[0].content_store 	decision_ratio[0] 	1
scalar tree_4_3_u06_r16_network.node[1].core_layer 	interests[1] 	109921
scalar tree_4_3_u06_r16_network.node[1].core_layer 	data[1] 	107723
scalar tree_4_3_u06_r16_network.node[1].content_store 	p_hit[1] 	0.019968886745936
scalar tree_4_3_u06_r16_network.node[1].content_store 	hits[1] 	2195
scalar tree_4_3_u06_r16_network.node[1].content_store 	misses[1] 	107726
scalar tree_4_3_u06_r16_network.node[1].content_store 	decision_yes[1] 	1071
scalar tree_4_3_u06_r16_network.node[1].content_store 	decision_no[1] 	106652
scalar tree_4_3_u06_r16_network.node[1].content_store 	decision_ratio[1] 	0.0099421664825525
scalar tree_4_3_u06_r16_network.node[2].core_layer 	interests[2] 	111076
scalar tree_4_3_u06_r16_network.node[2].core_layer 	data[2] 	109026
scalar tree_4_3_u06_r16_network.node[2].content_store 	p_hit[2] 	0.018446829198027
scalar tree_4_3_u06_r16_network.node[2].content_store 	hits[2] 	2049
scalar tree_4_3_u06_r16_network.node[2].content_store 	misses[2] 	109027
scalar tree_4_3_u06_r16_network.node[2].content_store 	decision_yes[2] 	1076
scalar tree_4_3_u06_r16_network.node[2].content_store 	decision_no[2] 	107950
scalar tree_4_3_u06_r16_network.node[2].content_store 	decision_ratio[2] 	0.0098692055106121
scalar tree_4_3_u06_r16_network.node[3].core_layer 	interests[3] 	8704
scalar tree_4_3_u06_r16_network.node[3].core_layer 	data[3] 	8618
scalar tree_4_3_u06_r16_network.node[3].content_store 	p_hit[3] 	0.0098805147058824
scalar tree_4_3_u06_r16_network.node[3].content_store 	hits[3] 	86
scalar tree_4_3_u06_r16_network.node[3].content_store 	misses[3] 	8618
scalar tree_4_3_u06_r16_network.node[3].content_store 	decision_yes[3] 	83
scalar tree_4_3_u06_r16_network.node[3].content_store 	decision_no[3] 	8535
scalar tree_4_3_u06_r16_network.node[3].content_store 	decision_ratio[3] 	0.0096310048735205
scalar tree_4_3_u06_r16_network.node[4].core_layer 	interests[4] 	34703
scalar tree_4_3_u06_r16_network.node[4].core_layer 	data[4] 	33467
scalar tree_4_3_u06_r16_network.node[4].content_store 	p_hit[4] 	0.035616517303979
scalar tree_4_3_u06_r16_network.node[4].content_store 	hits[4] 	1236
scalar tree_4_3_u06_r16_network.node[4].content_store 	misses[4] 	33467
scalar tree_4_3_u06_r16_network.node[4].content_store 	decision_yes[4] 	618
scalar tree_4_3_u06_r16_network.node[4].content_store 	decision_no[4] 	32849
scalar tree_4_3_u06_r16_network.node[4].content_store 	decision_ratio[4] 	0.018465951534347
scalar tree_4_3_u06_r16_network.node[5].core_layer 	interests[5] 	26251
scalar tree_4_3_u06_r16_network.node[5].core_layer 	data[5] 	25380
scalar tree_4_3_u06_r16_network.node[5].content_store 	p_hit[5] 	0.033103500819016
scalar tree_4_3_u06_r16_network.node[5].content_store 	hits[5] 	869
scalar tree_4_3_u06_r16_network.node[5].content_store 	misses[5] 	25382
scalar tree_4_3_u06_r16_network.node[5].content_store 	decision_yes[5] 	560
scalar tree_4_3_u06_r16_network.node[5].content_store 	decision_no[5] 	24820
scalar tree_4_3_u06_r16_network.node[5].content_store 	decision_ratio[5] 	0.022064617809299
scalar tree_4_3_u06_r16_network.node[6].core_layer 	interests[6] 	17753
scalar tree_4_3_u06_r16_network.node[6].core_layer 	data[6] 	17181
scalar tree_4_3_u06_r16_network.node[6].content_store 	p_hit[6] 	0.032219906494677
scalar tree_4_3_u06_r16_network.node[6].content_store 	hits[6] 	572
scalar tree_4_3_u06_r16_network.node[6].content_store 	misses[6] 	17181
scalar tree_4_3_u06_r16_network.node[6].content_store 	decision_yes[6] 	402
scalar tree_4_3_u06_r16_network.node[6].content_store 	decision_no[6] 	16779
scalar tree_4_3_u06_r16_network.node[6].content_store 	decision_ratio[6] 	0.023397939584425
scalar tree_4_3_u06_r16_network.node[7].core_layer 	interests[7] 	26487
scalar tree_4_3_u06_r16_network.node[7].core_layer 	data[7] 	25640
scalar tree_4_3_u06_r16_network.node[7].content_store 	p_hit[7] 	0.031940197077812
scalar tree_4_3_u06_r16_network.node[7].content_store 	hits[7] 	846
scalar tree_4_3_u06_r16_network.node[7].content_store 	misses[7] 	25641
scalar tree_4_3_u06_r16_network.node[7].content_store 	decision_yes[7] 	516
scalar tree_4_3_u06_r16_network.node[7].content_store 	decision_no[7] 	25124
scalar tree_4_3_u06_r16_network.node[7].content_store 	decision_ratio[7] 	0.0201248049922
scalar tree_4_3_u06_r16_network.node[8].core_layer 	interests[8] 	35245
scalar tree_4_3_u06_r16_network.node[8].core_layer 	data[8] 	34056
scalar tree_4_3_u06_r16_network.node[8].content_store 	p_hit[8] 	0.033735281600227
scalar tree_4_3_u06_r16_network.node[8].content_store 	hits[8] 	1189
scalar tree_4_3_u06_r16_network.node[8].content_store 	misses[8] 	34056
scalar tree_4_3_u06_r16_network.node[8].content_store 	decision_yes[8] 	584
scalar tree_4_3_u06_r16_network.node[8].content_store 	decision_no[8] 	33472
scalar tree_4_3_u06_r16_network.node[8].content_store 	decision_ratio[8] 	0.017148226450552
scalar tree_4_3_u06_r16_network.node[9].core_layer 	interests[9] 	17690
scalar tree_4_3_u06_r16_network.node[9].core_layer 	data[9] 	17117
scalar tree_4_3_u06_r16_network.node[9].content_store 	p_hit[9] 	0.032391181458451
scalar tree_4_3_u06_r16_network.node[9].content_store 	hits[9] 	573
scalar tree_4_3_u06_r16_network.node[9].content_store 	misses[9] 	17117
scalar tree_4_3_u06_r16_network.node[9].content_store 	decision_yes[9] 	376
scalar tree_4_3_u06_r16_network.node[9].content_store 	decision_no[9] 	16741
scalar tree_4_3_u06_r16_network.node[9].content_store 	decision_ratio[9] 	0.021966466086347
scalar tree_4_3_u06_r16_network.node[10].core_layer 	interests[10] 	35142
scalar tree_4_3_u06_r16_network.node[10].core_layer 	data[10] 	33892
scalar tree_4_3_u06_r16_network.node[10].content_store 	p_hit[10] 	0.035513061294178
scalar tree_4_3_u06_r16_network.node[10].content_store 	hits[10] 	1248
scalar tree_4_3_u06_r16_network.node[10].content_store 	misses[10] 	33894
scalar tree_4_3_u06_r16_network.node[10].content_store 	decision_yes[10] 	615
scalar tree_4_3_u06_r16_network.node[10].content_store 	decision_no[10] 	33277
scalar tree_4_3_u06_r16_network.node[10].content_store 	decision_ratio[10] 	0.018145875132775
scalar tree_4_3_u06_r16_network.node[11].core_layer 	interests[11] 	35408
scalar tree_4_3_u06_r16_network.node[11].core_layer 	data[11] 	34264
scalar tree_4_3_u06_r16_network.node[11].content_store 	p_hit[11] 	0.032280840488025
scalar tree_4_3_u06_r16_network.node[11].content_store 	hits[11] 	1143
scalar tree_4_3_u06_r16_network.node[11].content_store 	misses[11] 	34265
scalar tree_4_3_u06_r16_network.node[11].content_store 	decision_yes[11] 	573
scalar tree_4_3_u06_r16_network.node[11].content_store 	decision_no[11] 	33691
scalar tree_4_3_u06_r16_network.node[11].content_store 	decision_ratio[11] 	0.016723091291151
scalar tree_4_3_u06_r16_network.node[12].core_layer 	interests[12] 	8875
scalar tree_4_3_u06_r16_network.node[12].core_layer 	data[12] 	8704
scalar tree_4_3_u06_r16_network.node[12].content_store 	p_hit[12] 	0.019267605633803
scalar tree_4_3_u06_r16_network.node[12].content_store 	hits[12] 	171
scalar tree_4_3_u06_r16_network.node[12].content_store 	misses[12] 	8704
scalar tree_4_3_u06_r16_network.node[12].content_store 	decision_yes[12] 	86
scalar tree_4_3_u06_r16_network.node[12].content_store 	decision_no[12] 	8618
scalar tree_4_3_u06_r16_network.node[12].content_store 	decision_ratio[12] 	0.0098805147058824
scalar tree_4_3_u06_r16_network.node[13].core_layer 	interests[13] 	11677
scalar tree_4_3_u06_r16_network.node[13].core_layer 	data[13] 	8585
scalar tree_4_3_u06_r16_network.node[13].content_store 	p_hit[13] 	0.26479403956496
scalar tree_4_3_u06_r16_network.node[13].content_store 	hits[13] 	3092
scalar tree_4_3_u06_r16_network.node[13].content_store 	misses[13] 	8585
scalar tree_4_3_u06_r16_network.node[13].content_store 	decision_yes[13] 	309
scalar tree_4_3_u06_r16_network.node[13].content_store 	decision_no[13] 	8276
scalar tree_4_3_u06_r16_network.node[13].content_store 	decision_ratio[13] 	0.035993011065812
scalar tree_4_3_u06_r16_network.node[14].core_layer 	interests[14] 	11730
scalar tree_4_3_u06_r16_network.node[14].core_layer 	data[14] 	8579
scalar tree_4_3_u06_r16_network.node[14].content_store 	p_hit[14] 	0.26862745098039
scalar tree_4_3_u06_r16_network.node[14].content_store 	hits[14] 	3151
scalar tree_4_3_u06_r16_network.node[14].content_store 	misses[14] 	8579
scalar tree_4_3_u06_r16_network.node[14].content_store 	decision_yes[14] 	308
scalar tree_4_3_u06_r16_network.node[14].content_store 	decision_no[14] 	8271
scalar tree_4_3_u06_r16_network.node[14].content_store 	decision_ratio[14] 	0.035901620235459
scalar tree_4_3_u06_r16_network.node[15].core_layer 	interests[15] 	11932
scalar tree_4_3_u06_r16_network.node[15].core_layer 	data[15] 	8760
scalar tree_4_3_u06_r16_network.node[15].content_store 	p_hit[15] 	0.26583975863225
scalar tree_4_3_u06_r16_network.node[15].content_store 	hits[15] 	3172
scalar tree_4_3_u06_r16_network.node[15].content_store 	misses[15] 	8760
scalar tree_4_3_u06_r16_network.node[15].content_store 	decision_yes[15] 	315
scalar tree_4_3_u06_r16_network.node[15].content_store 	decision_no[15] 	8445
scalar tree_4_3_u06_r16_network.node[15].content_store 	decision_ratio[15] 	0.035958904109589
scalar tree_4_3_u06_r16_network.node[16].core_layer 	interests[16] 	12040
scalar tree_4_3_u06_r16_network.node[16].core_layer 	data[16] 	8779
scalar tree_4_3_u06_r16_network.node[16].content_store 	p_hit[16] 	0.27084717607973
scalar tree_4_3_u06_r16_network.node[16].content_store 	hits[16] 	3261
scalar tree_4_3_u06_r16_network.node[16].content_store 	misses[16] 	8779
scalar tree_4_3_u06_r16_network.node[16].content_store 	decision_yes[16] 	304
scalar tree_4_3_u06_r16_network.node[16].content_store 	decision_no[16] 	8475
scalar tree_4_3_u06_r16_network.node[16].content_store 	decision_ratio[16] 	0.034628089759654
scalar tree_4_3_u06_r16_network.node[17].core_layer 	interests[17] 	11964
scalar tree_4_3_u06_r16_network.node[17].core_layer 	data[17] 	8762
scalar tree_4_3_u06_r16_network.node[17].content_store 	p_hit[17] 	0.26763624205951
scalar tree_4_3_u06_r16_network.node[17].content_store 	hits[17] 	3202
scalar tree_4_3_u06_r16_network.node[17].content_store 	misses[17] 	8762
scalar tree_4_3_u06_r16_network.node[17].content_store 	decision_yes[17] 	295
scalar tree_4_3_u06_r16_network.node[17].content_store 	decision_no[17] 	8467
scalar tree_4_3_u06_r16_network.node[17].content_store 	decision_ratio[17] 	0.033668112303127
scalar tree_4_3_u06_r16_network.node[18].core_layer 	interests[18] 	11917
scalar tree_4_3_u06_r16_network.node[18].core_layer 	data[18] 	8729
scalar tree_4_3_u06_r16_network.node[18].content_store 	p_hit[18] 	0.26751699253168
scalar tree_4_3_u06_r16_network.node[18].content_store 	hits[18] 	3188
scalar tree_4_3_u06_r16_network.node[18].content_store 	misses[18] 	8729
scalar tree_4_3_u06_r16_network.node[18].content_store 	decision_yes[18] 	293
scalar tree_4_3_u06_r16_network.node[18].content_store 	decision_no[18] 	8436
scalar tree_4_3_u06_r16_network.node[18].content_store 	decision_ratio[18] 	0.033566273341734
scalar tree_4_3_u06_r16_network.node[19].core_layer 	interests[19] 	12193
scalar tree_4_3_u06_r16_network.node[19].core_layer 	data[19] 	8856
scalar tree_4_3_u06_r16_network.node[19].content_store 	p_hit[19] 	0.27368162060198
scalar tree_4_3_u06_r16_network.node[19].content_store 	hits[19] 	3337
scalar tree_4_3_u06_r16_network.node[19].content_store 	misses[19] 	8856
scalar tree_4_3_u06_r16_network.node[19].content_store 	decision_yes[19] 	286
scalar tree_4_3_u06_r16_network.node[19].content_store 	decision_no[19] 	8570
scalar tree_4_3_u06_r16_network.node[19].content_store 	decision_ratio[19] 	0.032294489611563
scalar tree_4_3_u06_r16_network.node[20].core_layer 	interests[20] 	11970
scalar tree_4_3_u06_r16_network.node[20].core_layer 	data[20] 	8760
scalar tree_4_3_u06_r16_network.node[20].content_store 	p_hit[20] 	0.26817042606516
scalar tree_4_3_u06_r16_network.node[20].content_store 	hits[20] 	3210
scalar tree_4_3_u06_r16_network.node[20].content_store 	misses[20] 	8760
scalar tree_4_3_u06_r16_network.node[20].content_store 	decision_yes[20] 	281
scalar tree_4_3_u06_r16_network.node[20].content_store 	decision_no[20] 	8479
scalar tree_4_3_u06_r16_network.node[20].content_store 	decision_ratio[20] 	0.032077625570776
scalar tree_4_3_u06_r16_network.node[21].core_layer 	interests[21] 	12009
scalar tree_4_3_u06_r16_network.node[21].core_layer 	data[21] 	8897
scalar tree_4_3_u06_r16_network.node[21].content_store 	p_hit[21] 	0.25905570821884
scalar tree_4_3_u06_r16_network.node[21].content_store 	hits[21] 	3111
scalar tree_4_3_u06_r16_network.node[21].content_store 	misses[21] 	8898
scalar tree_4_3_u06_r16_network.node[21].content_store 	decision_yes[21] 	286
scalar tree_4_3_u06_r16_network.node[21].content_store 	decision_no[21] 	8611
scalar tree_4_3_u06_r16_network.node[21].content_store 	decision_ratio[21] 	0.032145667078791
scalar tree_4_3_u06_r16_network.node[22].core_layer 	interests[22] 	11949
scalar tree_4_3_u06_r16_network.node[22].core_layer 	data[22] 	8841
scalar tree_4_3_u06_r16_network.node[22].content_store 	p_hit[22] 	0.26010544815466
scalar tree_4_3_u06_r16_network.node[22].content_store 	hits[22] 	3108
scalar tree_4_3_u06_r16_network.node[22].content_store 	misses[22] 	8841
scalar tree_4_3_u06_r16_network.node[22].content_store 	decision_yes[22] 	306
scalar tree_4_3_u06_r16_network.node[22].content_store 	decision_no[22] 	8535
scalar tree_4_3_u06_r16_network.node[22].content_store 	decision_ratio[22] 	0.034611469290804
scalar tree_4_3_u06_r16_network.node[23].core_layer 	interests[23] 	11964
scalar tree_4_3_u06_r16_network.node[23].core_layer 	data[23] 	8720
scalar tree_4_3_u06_r16_network.node[23].content_store 	p_hit[23] 	0.27106318956871
scalar tree_4_3_u06_r16_network.node[23].content_store 	hits[23] 	3243
scalar tree_4_3_u06_r16_network.node[23].content_store 	misses[23] 	8721
scalar tree_4_3_u06_r16_network.node[23].content_store 	decision_yes[23] 	280
scalar tree_4_3_u06_r16_network.node[23].content_store 	decision_no[23] 	8440
scalar tree_4_3_u06_r16_network.node[23].content_store 	decision_ratio[23] 	0.032110091743119
scalar tree_4_3_u06_r16_network.node[24].core_layer 	interests[24] 	12072
scalar tree_4_3_u06_r16_network.node[24].core_layer 	data[24] 	8926
scalar tree_4_3_u06_r16_network.node[24].content_store 	p_hit[24] 	0.26060304837641
scalar tree_4_3_u06_r16_network.node[24].content_store 	hits[24] 	3146
scalar tree_4_3_u06_r16_network.node[24].content_store 	misses[24] 	8926
scalar tree_4_3_u06_r16_network.node[24].content_store 	decision_yes[24] 	260
scalar tree_4_3_u06_r16_network.node[24].content_store 	decision_no[24] 	8666
scalar tree_4_3_u06_r16_network.node[24].content_store 	decision_ratio[24] 	0.029128388976025
scalar tree_4_3_u06_r16_network.node[25].core_layer 	interests[25] 	12139
scalar tree_4_3_u06_r16_network.node[25].core_layer 	data[25] 	8958
scalar tree_4_3_u06_r16_network.node[25].content_store 	p_hit[25] 	0.26204794464124
scalar tree_4_3_u06_r16_network.node[25].content_store 	hits[25] 	3181
scalar tree_4_3_u06_r16_network.node[25].content_store 	misses[25] 	8958
scalar tree_4_3_u06_r16_network.node[25].content_store 	decision_yes[25] 	327
scalar tree_4_3_u06_r16_network.node[25].content_store 	decision_no[25] 	8631
scalar tree_4_3_u06_r16_network.node[25].content_store 	decision_ratio[25] 	0.036503683858004
scalar tree_4_3_u06_r16_network.node[26].core_layer 	interests[26] 	11929
scalar tree_4_3_u06_r16_network.node[26].core_layer 	data[26] 	8884
scalar tree_4_3_u06_r16_network.node[26].content_store 	p_hit[26] 	0.25526029004946
scalar tree_4_3_u06_r16_network.node[26].content_store 	hits[26] 	3045
scalar tree_4_3_u06_r16_network.node[26].content_store 	misses[26] 	8884
scalar tree_4_3_u06_r16_network.node[26].content_store 	decision_yes[26] 	281
scalar tree_4_3_u06_r16_network.node[26].content_store 	decision_no[26] 	8603
scalar tree_4_3_u06_r16_network.node[26].content_store 	decision_ratio[26] 	0.031629896443044
scalar tree_4_3_u06_r16_network.node[27].core_layer 	interests[27] 	12003
scalar tree_4_3_u06_r16_network.node[27].core_layer 	data[27] 	8722
scalar tree_4_3_u06_r16_network.node[27].content_store 	p_hit[27] 	0.27343164208948
scalar tree_4_3_u06_r16_network.node[27].content_store 	hits[27] 	3282
scalar tree_4_3_u06_r16_network.node[27].content_store 	misses[27] 	8721
scalar tree_4_3_u06_r16_network.node[27].content_store 	decision_yes[27] 	306
scalar tree_4_3_u06_r16_network.node[27].content_store 	decision_no[27] 	8416
scalar tree_4_3_u06_r16_network.node[27].content_store 	decision_ratio[27] 	0.035083696399908
scalar tree_4_3_u06_r16_network.node[28].core_layer 	interests[28] 	12043
scalar tree_4_3_u06_r16_network.node[28].core_layer 	data[28] 	8799
scalar tree_4_3_u06_r16_network.node[28].content_store 	p_hit[28] 	0.26936809765009
scalar tree_4_3_u06_r16_network.node[28].content_store 	hits[28] 	3244
scalar tree_4_3_u06_r16_network.node[28].content_store 	misses[28] 	8799
scalar tree_4_3_u06_r16_network.node[28].content_store 	decision_yes[28] 	270
scalar tree_4_3_u06_r16_network.node[28].content_store 	decision_no[28] 	8529
scalar tree_4_3_u06_r16_network.node[28].content_store 	decision_ratio[28] 	0.030685305148312
scalar tree_4_3_u06_r16_network.node[29].core_layer 	interests[29] 	11912
scalar tree_4_3_u06_r16_network.node[29].core_layer 	data[29] 	8682
scalar tree_4_3_u06_r16_network.node[29].content_store 	p_hit[29] 	0.27115513767629
scalar tree_4_3_u06_r16_network.node[29].content_store 	hits[29] 	3230
scalar tree_4_3_u06_r16_network.node[29].content_store 	misses[29] 	8682
scalar tree_4_3_u06_r16_network.node[29].content_store 	decision_yes[29] 	275
scalar tree_4_3_u06_r16_network.node[29].content_store 	decision_no[29] 	8407
scalar tree_4_3_u06_r16_network.node[29].content_store 	decision_ratio[29] 	0.03167472932504
scalar tree_4_3_u06_r16_network.node[30].core_layer 	interests[30] 	12048
scalar tree_4_3_u06_r16_network.node[30].core_layer 	data[30] 	8891
scalar tree_4_3_u06_r16_network.node[30].content_store 	p_hit[30] 	0.26203519256308
scalar tree_4_3_u06_r16_network.node[30].content_store 	hits[30] 	3157
scalar tree_4_3_u06_r16_network.node[30].content_store 	misses[30] 	8891
scalar tree_4_3_u06_r16_network.node[30].content_store 	decision_yes[30] 	303
scalar tree_4_3_u06_r16_network.node[30].content_store 	decision_no[30] 	8588
scalar tree_4_3_u06_r16_network.node[30].content_store 	decision_ratio[30] 	0.034079406141042
scalar tree_4_3_u06_r16_network.node[31].core_layer 	interests[31] 	12049
scalar tree_4_3_u06_r16_network.node[31].core_layer 	data[31] 	8833
scalar tree_4_3_u06_r16_network.node[31].content_store 	p_hit[31] 	0.26682712258279
scalar tree_4_3_u06_r16_network.node[31].content_store 	hits[31] 	3215
scalar tree_4_3_u06_r16_network.node[31].content_store 	misses[31] 	8834
scalar tree_4_3_u06_r16_network.node[31].content_store 	decision_yes[31] 	313
scalar tree_4_3_u06_r16_network.node[31].content_store 	decision_no[31] 	8520
scalar tree_4_3_u06_r16_network.node[31].content_store 	decision_ratio[31] 	0.035435299445262
scalar tree_4_3_u06_r16_network.node[32].core_layer 	interests[32] 	11881
scalar tree_4_3_u06_r16_network.node[32].core_layer 	data[32] 	8690
scalar tree_4_3_u06_r16_network.node[32].content_store 	p_hit[32] 	0.26849591785203
scalar tree_4_3_u06_r16_network.node[32].content_store 	hits[32] 	3190
scalar tree_4_3_u06_r16_network.node[32].content_store 	misses[32] 	8691
scalar tree_4_3_u06_r16_network.node[32].content_store 	decision_yes[32] 	285
scalar tree_4_3_u06_r16_network.node[32].content_store 	decision_no[32] 	8405
scalar tree_4_3_u06_r16_network.node[32].content_store 	decision_ratio[32] 	0.032796317606444
scalar tree_4_3_u06_r16_network.node[33].core_layer 	interests[33] 	12081
scalar tree_4_3_u06_r16_network.node[33].core_layer 	data[33] 	8831
scalar tree_4_3_u06_r16_network.node[33].content_store 	p_hit[33] 	0.2690174654416
scalar tree_4_3_u06_r16_network.node[33].content_store 	hits[33] 	3250
scalar tree_4_3_u06_r16_network.node[33].content_store 	misses[33] 	8831
scalar tree_4_3_u06_r16_network.node[33].content_store 	decision_yes[33] 	317
scalar tree_4_3_u06_r16_network.node[33].content_store 	decision_no[33] 	8514
scalar tree_4_3_u06_r16_network.node[33].content_store 	decision_ratio[33] 	0.035896274487601
scalar tree_4_3_u06_r16_network.node[34].core_layer 	interests[34] 	12003
scalar tree_4_3_u06_r16_network.node[34].core_layer 	data[34] 	8802
scalar tree_4_3_u06_r16_network.node[34].content_store 	p_hit[34] 	0.2666000166625
scalar tree_4_3_u06_r16_network.node[34].content_store 	hits[34] 	3200
scalar tree_4_3_u06_r16_network.node[34].content_store 	misses[34] 	8803
scalar tree_4_3_u06_r16_network.node[34].content_store 	decision_yes[34] 	312
scalar tree_4_3_u06_r16_network.node[34].content_store 	decision_no[34] 	8490
scalar tree_4_3_u06_r16_network.node[34].content_store 	decision_ratio[34] 	0.035446489434219
scalar tree_4_3_u06_r16_network.node[35].core_layer 	interests[35] 	11920
scalar tree_4_3_u06_r16_network.node[35].core_layer 	data[35] 	8704
scalar tree_4_3_u06_r16_network.node[35].content_store 	p_hit[35] 	0.26979865771812
scalar tree_4_3_u06_r16_network.node[35].content_store 	hits[35] 	3216
scalar tree_4_3_u06_r16_network.node[35].content_store 	misses[35] 	8704
scalar tree_4_3_u06_r16_network.node[35].content_store 	decision_yes[35] 	280
scalar tree_4_3_u06_r16_network.node[35].content_store 	decision_no[35] 	8424
scalar tree_4_3_u06_r16_network.node[35].content_store 	decision_ratio[35] 	0.032169117647059
scalar tree_4_3_u06_r16_network.node[36].core_layer 	interests[36] 	12113
scalar tree_4_3_u06_r16_network.node[36].core_layer 	data[36] 	8912
scalar tree_4_3_u06_r16_network.node[36].content_store 	p_hit[36] 	0.26426153719145
scalar tree_4_3_u06_r16_network.node[36].content_store 	hits[36] 	3201
scalar tree_4_3_u06_r16_network.node[36].content_store 	misses[36] 	8912
scalar tree_4_3_u06_r16_network.node[36].content_store 	decision_yes[36] 	277
scalar tree_4_3_u06_r16_network.node[36].content_store 	decision_no[36] 	8635
scalar tree_4_3_u06_r16_network.node[36].content_store 	decision_ratio[36] 	0.031081687612208
scalar tree_4_3_u06_r16_network.node[37].core_layer 	interests[37] 	12027
scalar tree_4_3_u06_r16_network.node[37].core_layer 	data[37] 	8787
scalar tree_4_3_u06_r16_network.node[37].content_store 	p_hit[37] 	0.26931071755217
scalar tree_4_3_u06_r16_network.node[37].content_store 	hits[37] 	3239
scalar tree_4_3_u06_r16_network.node[37].content_store 	misses[37] 	8788
scalar tree_4_3_u06_r16_network.node[37].content_store 	decision_yes[37] 	333
scalar tree_4_3_u06_r16_network.node[37].content_store 	decision_no[37] 	8454
scalar tree_4_3_u06_r16_network.node[37].content_store 	decision_ratio[37] 	0.03789689313759
scalar tree_4_3_u06_r16_network.node[38].core_layer 	interests[38] 	12160
scalar tree_4_3_u06_r16_network.node[38].core_layer 	data[38] 	8990
scalar tree_4_3_u06_r16_network.node[38].content_store 	p_hit[38] 	0.26069078947368
scalar tree_4_3_u06_r16_network.node[38].content_store 	hits[38] 	3170
scalar tree_4_3_u06_r16_network.node[38].content_store 	misses[38] 	8990
scalar tree_4_3_u06_r16_network.node[38].content_store 	decision_yes[38] 	274
scalar tree_4_3_u06_r16_network.node[38].content_store 	decision_no[38] 	8716
scalar tree_4_3_u06_r16_network.node[38].content_store 	decision_ratio[38] 	0.030478309232481
scalar tree_4_3_u06_r16_network.node[39].core_layer 	interests[39] 	11994
scalar tree_4_3_u06_r16_network.node[39].core_layer 	data[39] 	8875
scalar tree_4_3_u06_r16_network.node[39].content_store 	p_hit[39] 	0.26004669001167
scalar tree_4_3_u06_r16_network.node[39].content_store 	hits[39] 	3119
scalar tree_4_3_u06_r16_network.node[39].content_store 	misses[39] 	8875
scalar tree_4_3_u06_r16_network.node[39].content_store 	decision_yes[39] 	171
scalar tree_4_3_u06_r16_network.node[39].content_store 	decision_no[39] 	8704
scalar tree_4_3_u06_r16_network.node[39].content_store 	decision_ratio[39] 	0.019267605633803
scalar tree_4_3_u06_r16_network.client[13] 	hdistance[13] 	2.8279523850304
scalar tree_4_3_u06_r16_network.client[13] 	downloads[13] 	11677
scalar tree_4_3_u06_r16_network.client[13] 	avg_time[13] 	0.004278322027
scalar tree_4_3_u06_r16_network.client[14] 	hdistance[14] 	2.812958226769
scalar tree_4_3_u06_r16_network.client[14] 	downloads[14] 	11730
scalar tree_4_3_u06_r16_network.client[14] 	avg_time[14] 	0.004256945036
scalar tree_4_3_u06_r16_network.client[15] 	hdistance[15] 	2.8255950385518
scalar tree_4_3_u06_r16_network.client[15] 	downloads[15] 	11932
scalar tree_4_3_u06_r16_network.client[15] 	avg_time[15] 	0.004274049971
scalar tree_4_3_u06_r16_network.client[16] 	hdistance[16] 	2.8083887043189
scalar tree_4_3_u06_r16_network.client[16] 	downloads[16] 	12040
scalar tree_4_3_u06_r16_network.client[16] 	avg_time[16] 	0.004248169754
scalar tree_4_3_u06_r16_network.client[17] 	hdistance[17] 	2.8226345703778
scalar tree_4_3_u06_r16_network.client[17] 	downloads[17] 	11964
scalar tree_4_3_u06_r16_network.client[17] 	avg_time[17] 	0.004268266204
scalar tree_4_3_u06_r16_network.client[18] 	hdistance[18] 	2.8179071914072
scalar tree_4_3_u06_r16_network.client[18] 	downloads[18] 	11917
scalar tree_4_3_u06_r16_network.client[18] 	avg_time[18] 	0.004265220131
scalar tree_4_3_u06_r16_network.client[19] 	hdistance[19] 	2.7957024522267
scalar tree_4_3_u06_r16_network.client[19] 	downloads[19] 	12193
scalar tree_4_3_u06_r16_network.client[19] 	avg_time[19] 	0.004232425389
scalar tree_4_3_u06_r16_network.client[20] 	hdistance[20] 	2.8137844611529
scalar tree_4_3_u06_r16_network.client[20] 	downloads[20] 	11970
scalar tree_4_3_u06_r16_network.client[20] 	avg_time[20] 	0.004261484054
scalar tree_4_3_u06_r16_network.client[21] 	hdistance[21] 	2.8510992671552
scalar tree_4_3_u06_r16_network.client[21] 	downloads[21] 	12008
scalar tree_4_3_u06_r16_network.client[21] 	avg_time[21] 	0.004315325319
scalar tree_4_3_u06_r16_network.client[22] 	hdistance[22] 	2.8419114570257
scalar tree_4_3_u06_r16_network.client[22] 	downloads[22] 	11949
scalar tree_4_3_u06_r16_network.client[22] 	avg_time[22] 	0.004303955474
scalar tree_4_3_u06_r16_network.client[23] 	hdistance[23] 	2.8091615815431
scalar tree_4_3_u06_r16_network.client[23] 	downloads[23] 	11963
scalar tree_4_3_u06_r16_network.client[23] 	avg_time[23] 	0.004250767358
scalar tree_4_3_u06_r16_network.client[24] 	hdistance[24] 	2.8627402253148
scalar tree_4_3_u06_r16_network.client[24] 	downloads[24] 	12072
scalar tree_4_3_u06_r16_network.client[24] 	avg_time[24] 	0.004325749619
scalar tree_4_3_u06_r16_network.client[25] 	hdistance[25] 	2.8391959798995
scalar tree_4_3_u06_r16_network.client[25] 	downloads[25] 	12139
scalar tree_4_3_u06_r16_network.client[25] 	avg_time[25] 	0.004294584632
scalar tree_4_3_u06_r16_network.client[26] 	hdistance[26] 	2.8773576997234
scalar tree_4_3_u06_r16_network.client[26] 	downloads[26] 	11929
scalar tree_4_3_u06_r16_network.client[26] 	avg_time[26] 	0.004350529547
scalar tree_4_3_u06_r16_network.client[27] 	hdistance[27] 	2.7985671442852
scalar tree_4_3_u06_r16_network.client[27] 	downloads[27] 	12004
scalar tree_4_3_u06_r16_network.client[27] 	avg_time[27] 	0.004233252569
scalar tree_4_3_u06_r16_network.client[28] 	hdistance[28] 	2.8203105538487
scalar tree_4_3_u06_r16_network.client[28] 	downloads[28] 	12043
scalar tree_4_3_u06_r16_network.client[28] 	avg_time[28] 	0.004265414475
scalar tree_4_3_u06_r16_network.client[29] 	hdistance[29] 	2.8144728005373
scalar tree_4_3_u06_r16_network.client[29] 	downloads[29] 	11912
scalar tree_4_3_u06_r16_network.client[29] 	avg_time[29] 	0.004256712948
scalar tree_4_3_u06_r16_network.client[30] 	hdistance[30] 	2.8355743691899
scalar tree_4_3_u06_r16_network.client[30] 	downloads[30] 	12048
scalar tree_4_3_u06_r16_network.client[30] 	avg_time[30] 	0.004293323702
scalar tree_4_3_u06_r16_network.client[31] 	hdistance[31] 	2.8208831341301
scalar tree_4_3_u06_r16_network.client[31] 	downloads[31] 	12048
scalar tree_4_3_u06_r16_network.client[31] 	avg_time[31] 	0.004267976415
scalar tree_4_3_u06_r16_network.client[32] 	hdistance[32] 	2.8221380471381
scalar tree_4_3_u06_r16_network.client[32] 	downloads[32] 	11880
scalar tree_4_3_u06_r16_network.client[32] 	avg_time[32] 	0.004268287429
scalar tree_4_3_u06_r16_network.client[33] 	hdistance[33] 	2.8137571393096
scalar tree_4_3_u06_r16_network.client[33] 	downloads[33] 	12081
scalar tree_4_3_u06_r16_network.client[33] 	avg_time[33] 	0.004255273861
scalar tree_4_3_u06_r16_network.client[34] 	hdistance[34] 	2.8267788701883
scalar tree_4_3_u06_r16_network.client[34] 	downloads[34] 	12002
scalar tree_4_3_u06_r16_network.client[34] 	avg_time[34] 	0.004273343264
scalar tree_4_3_u06_r16_network.client[35] 	hdistance[35] 	2.8179530201342
scalar tree_4_3_u06_r16_network.client[35] 	downloads[35] 	11920
scalar tree_4_3_u06_r16_network.client[35] 	avg_time[35] 	0.004261406417
scalar tree_4_3_u06_r16_network.client[36] 	hdistance[36] 	2.8475191942541
scalar tree_4_3_u06_r16_network.client[36] 	downloads[36] 	12113
scalar tree_4_3_u06_r16_network.client[36] 	avg_time[36] 	0.004302874968
scalar tree_4_3_u06_r16_network.client[37] 	hdistance[37] 	2.8062531182438
scalar tree_4_3_u06_r16_network.client[37] 	downloads[37] 	12026
scalar tree_4_3_u06_r16_network.client[37] 	avg_time[37] 	0.004247877554
scalar tree_4_3_u06_r16_network.client[38] 	hdistance[38] 	2.8557565789474
scalar tree_4_3_u06_r16_network.client[38] 	downloads[38] 	12160
scalar tree_4_3_u06_r16_network.client[38] 	avg_time[38] 	0.004318911414
scalar tree_4_3_u06_r16_network.client[39] 	hdistance[39] 	2.8957812239453
scalar tree_4_3_u06_r16_network.client[39] 	downloads[39] 	11994
scalar tree_4_3_u06_r16_network.client[39] 	avg_time[39] 	0.004368347835
