version 2
run General-131-20160820-09:24:40-856
attr a 0.9
attr cd lcd
attr configname General
attr cr lru
attr datetime 20160820-09:24:40
attr experiment General
attr fsize 1
attr inifile hw5115/scenario_A/SPR-LCD.ini
attr iterationvars "$name=tree_4_3, $un=06, $rep=12, $cd=lcd, $cr=lru, $fsize=1, $a=0.9, $sl=spr, $ttl=1000, $variance=0.05"
attr iterationvars2 "$name=tree_4_3, $un=06, $rep=12, $cd=lcd, $cr=lru, $fsize=1, $a=0.9, $sl=spr, $ttl=1000, $variance=0.05, $repetition=0"
attr measurement "$name=tree_4_3, $un=06, $rep=12, $cd=lcd, $cr=lru, $fsize=1, $a=0.9, $sl=spr, $ttl=1000, $variance=0.05"
attr name tree_4_3
attr network networks.${name}_u${un}_r${rep}_network
attr processid 856
attr rep 12
attr repetition 0
attr replication #0
attr resultdir results
attr runnumber 131
attr seedset 12
attr sl spr
attr ttl 1000
attr un 06
attr variance 0.05

scalar . 	a 	0.9
scalar . 	fsize 	1
scalar . 	rep 	12
scalar . 	ttl 	1000
scalar . 	un 	06
scalar . 	variance 	0.05
scalar tree_4_3_u06_r12_network.content_distribution 	repo-0 	0
scalar tree_4_3_u06_r12_network.content_distribution 	client-0 	13
scalar tree_4_3_u06_r12_network.content_distribution 	client-1 	14
scalar tree_4_3_u06_r12_network.content_distribution 	client-2 	15
scalar tree_4_3_u06_r12_network.content_distribution 	client-3 	16
scalar tree_4_3_u06_r12_network.content_distribution 	client-4 	17
scalar tree_4_3_u06_r12_network.content_distribution 	client-5 	18
scalar tree_4_3_u06_r12_network.content_distribution 	client-6 	19
scalar tree_4_3_u06_r12_network.content_distribution 	client-7 	20
scalar tree_4_3_u06_r12_network.content_distribution 	client-8 	21
scalar tree_4_3_u06_r12_network.content_distribution 	client-9 	22
scalar tree_4_3_u06_r12_network.content_distribution 	client-10 	23
scalar tree_4_3_u06_r12_network.content_distribution 	client-11 	24
scalar tree_4_3_u06_r12_network.content_distribution 	client-12 	25
scalar tree_4_3_u06_r12_network.content_distribution 	client-13 	26
scalar tree_4_3_u06_r12_network.content_distribution 	client-14 	27
scalar tree_4_3_u06_r12_network.content_distribution 	client-15 	28
scalar tree_4_3_u06_r12_network.content_distribution 	client-16 	29
scalar tree_4_3_u06_r12_network.content_distribution 	client-17 	30
scalar tree_4_3_u06_r12_network.content_distribution 	client-18 	31
scalar tree_4_3_u06_r12_network.content_distribution 	client-19 	32
scalar tree_4_3_u06_r12_network.content_distribution 	client-20 	33
scalar tree_4_3_u06_r12_network.content_distribution 	client-21 	34
scalar tree_4_3_u06_r12_network.content_distribution 	client-22 	35
scalar tree_4_3_u06_r12_network.content_distribution 	client-23 	36
scalar tree_4_3_u06_r12_network.content_distribution 	client-24 	37
scalar tree_4_3_u06_r12_network.content_distribution 	client-25 	38
scalar tree_4_3_u06_r12_network.content_distribution 	client-26 	39
scalar tree_4_3_u06_r12_network.content_distribution 	repo-0_card 	100000
scalar tree_4_3_u06_r12_network.content_distribution 	repo-0_price 	0
scalar tree_4_3_u06_r12_network.statistics 	stabilization_time 	2699.7
scalar tree_4_3_u06_r12_network.statistics 	p_hit 	0.18801548316866
scalar tree_4_3_u06_r12_network.statistics 	interests 	25500.125
scalar tree_4_3_u06_r12_network.statistics 	data 	17383.3
scalar tree_4_3_u06_r12_network.statistics 	hdistance 	2.8325370781927
scalar tree_4_3_u06_r12_network.statistics 	avg_time 	0.004283408104
scalar tree_4_3_u06_r12_network.statistics 	downloads 	324677
scalar tree_4_3_u06_r12_network.statistics 	total_cost 	0
scalar tree_4_3_u06_r12_network.statistics 	total_replicas 	100000
scalar tree_4_3_u06_r12_network.statistics 	inner_hit 	0.30927352414862
scalar tree_4_3_u06_r12_network.node[0].core_layer 	interests[0] 	226443
scalar tree_4_3_u06_r12_network.node[0].core_layer 	repo_load[0] 	224263
scalar tree_4_3_u06_r12_network.node[0].core_layer 	data[0] 	0
scalar tree_4_3_u06_r12_network.node[0].core_layer 	repo_int[0] 	224263
scalar tree_4_3_u06_r12_network.node[0].content_store 	p_hit[0] 	0.0096271467874918
scalar tree_4_3_u06_r12_network.node[0].content_store 	hits[0] 	2180
scalar tree_4_3_u06_r12_network.node[0].content_store 	misses[0] 	224263
scalar tree_4_3_u06_r12_network.node[0].content_store 	decision_yes[0] 	224263
scalar tree_4_3_u06_r12_network.node[0].content_store 	decision_no[0] 	0
scalar tree_4_3_u06_r12_network.node[0].content_store 	decision_ratio[0] 	1
scalar tree_4_3_u06_r12_network.node[1].core_layer 	interests[1] 	110791
scalar tree_4_3_u06_r12_network.node[1].core_layer 	data[1] 	108711
scalar tree_4_3_u06_r12_network.node[1].content_store 	p_hit[1] 	0.018710906120533
scalar tree_4_3_u06_r12_network.node[1].content_store 	hits[1] 	2073
scalar tree_4_3_u06_r12_network.node[1].content_store 	misses[1] 	108718
scalar tree_4_3_u06_r12_network.node[1].content_store 	decision_yes[1] 	1051
scalar tree_4_3_u06_r12_network.node[1].content_store 	decision_no[1] 	107660
scalar tree_4_3_u06_r12_network.node[1].content_store 	decision_ratio[1] 	0.0096678349017119
scalar tree_4_3_u06_r12_network.node[2].core_layer 	interests[2] 	102704
scalar tree_4_3_u06_r12_network.node[2].core_layer 	data[2] 	100803
scalar tree_4_3_u06_r12_network.node[2].content_store 	p_hit[2] 	0.018480292880511
scalar tree_4_3_u06_r12_network.node[2].content_store 	hits[2] 	1898
scalar tree_4_3_u06_r12_network.node[2].content_store 	misses[2] 	100806
scalar tree_4_3_u06_r12_network.node[2].content_store 	decision_yes[2] 	980
scalar tree_4_3_u06_r12_network.node[2].content_store 	decision_no[2] 	99823
scalar tree_4_3_u06_r12_network.node[2].content_store 	decision_ratio[2] 	0.0097219328789818
scalar tree_4_3_u06_r12_network.node[3].core_layer 	interests[3] 	17088
scalar tree_4_3_u06_r12_network.node[3].core_layer 	data[3] 	16929
scalar tree_4_3_u06_r12_network.node[3].content_store 	p_hit[3] 	0.0093047752808989
scalar tree_4_3_u06_r12_network.node[3].content_store 	hits[3] 	159
scalar tree_4_3_u06_r12_network.node[3].content_store 	misses[3] 	16929
scalar tree_4_3_u06_r12_network.node[3].content_store 	decision_yes[3] 	149
scalar tree_4_3_u06_r12_network.node[3].content_store 	decision_no[3] 	16780
scalar tree_4_3_u06_r12_network.node[3].content_store 	decision_ratio[3] 	0.0088014649418158
scalar tree_4_3_u06_r12_network.node[4].core_layer 	interests[4] 	35517
scalar tree_4_3_u06_r12_network.node[4].core_layer 	data[4] 	34307
scalar tree_4_3_u06_r12_network.node[4].content_store 	p_hit[4] 	0.034040037165301
scalar tree_4_3_u06_r12_network.node[4].content_store 	hits[4] 	1209
scalar tree_4_3_u06_r12_network.node[4].content_store 	misses[4] 	34308
scalar tree_4_3_u06_r12_network.node[4].content_store 	decision_yes[4] 	582
scalar tree_4_3_u06_r12_network.node[4].content_store 	decision_no[4] 	33725
scalar tree_4_3_u06_r12_network.node[4].content_store 	decision_ratio[4] 	0.01696446789285
scalar tree_4_3_u06_r12_network.node[5].core_layer 	interests[5] 	26278
scalar tree_4_3_u06_r12_network.node[5].core_layer 	data[5] 	25394
scalar tree_4_3_u06_r12_network.node[5].content_store 	p_hit[5] 	0.033640307481543
scalar tree_4_3_u06_r12_network.node[5].content_store 	hits[5] 	884
scalar tree_4_3_u06_r12_network.node[5].content_store 	misses[5] 	25394
scalar tree_4_3_u06_r12_network.node[5].content_store 	decision_yes[5] 	487
scalar tree_4_3_u06_r12_network.node[5].content_store 	decision_no[5] 	24907
scalar tree_4_3_u06_r12_network.node[5].content_store 	decision_ratio[5] 	0.019177758525636
scalar tree_4_3_u06_r12_network.node[6].core_layer 	interests[6] 	17526
scalar tree_4_3_u06_r12_network.node[6].core_layer 	data[6] 	16958
scalar tree_4_3_u06_r12_network.node[6].content_store 	p_hit[6] 	0.032408992354217
scalar tree_4_3_u06_r12_network.node[6].content_store 	hits[6] 	568
scalar tree_4_3_u06_r12_network.node[6].content_store 	misses[6] 	16958
scalar tree_4_3_u06_r12_network.node[6].content_store 	decision_yes[6] 	415
scalar tree_4_3_u06_r12_network.node[6].content_store 	decision_no[6] 	16543
scalar tree_4_3_u06_r12_network.node[6].content_store 	decision_ratio[6] 	0.02447222549829
scalar tree_4_3_u06_r12_network.node[7].core_layer 	interests[7] 	43929
scalar tree_4_3_u06_r12_network.node[7].core_layer 	data[7] 	42438
scalar tree_4_3_u06_r12_network.node[7].content_store 	p_hit[7] 	0.033941132281636
scalar tree_4_3_u06_r12_network.node[7].content_store 	hits[7] 	1491
scalar tree_4_3_u06_r12_network.node[7].content_store 	misses[7] 	42438
scalar tree_4_3_u06_r12_network.node[7].content_store 	decision_yes[7] 	650
scalar tree_4_3_u06_r12_network.node[7].content_store 	decision_no[7] 	41788
scalar tree_4_3_u06_r12_network.node[7].content_store 	decision_ratio[7] 	0.015316461661718
scalar tree_4_3_u06_r12_network.node[8].core_layer 	interests[8] 	26745
scalar tree_4_3_u06_r12_network.node[8].core_layer 	data[8] 	25854
scalar tree_4_3_u06_r12_network.node[8].content_store 	p_hit[8] 	0.033239857917368
scalar tree_4_3_u06_r12_network.node[8].content_store 	hits[8] 	889
scalar tree_4_3_u06_r12_network.node[8].content_store 	misses[8] 	25856
scalar tree_4_3_u06_r12_network.node[8].content_store 	decision_yes[8] 	497
scalar tree_4_3_u06_r12_network.node[8].content_store 	decision_no[8] 	25357
scalar tree_4_3_u06_r12_network.node[8].content_store 	decision_ratio[8] 	0.019223331012609
scalar tree_4_3_u06_r12_network.node[9].core_layer 	interests[9] 	8956
scalar tree_4_3_u06_r12_network.node[9].core_layer 	data[9] 	8713
scalar tree_4_3_u06_r12_network.node[9].content_store 	p_hit[9] 	0.027244305493524
scalar tree_4_3_u06_r12_network.node[9].content_store 	hits[9] 	244
scalar tree_4_3_u06_r12_network.node[9].content_store 	misses[9] 	8712
scalar tree_4_3_u06_r12_network.node[9].content_store 	decision_yes[9] 	239
scalar tree_4_3_u06_r12_network.node[9].content_store 	decision_no[9] 	8474
scalar tree_4_3_u06_r12_network.node[9].content_store 	decision_ratio[9] 	0.027430276598187
scalar tree_4_3_u06_r12_network.node[10].core_layer 	interests[10] 	35325
scalar tree_4_3_u06_r12_network.node[10].core_layer 	data[10] 	34132
scalar tree_4_3_u06_r12_network.node[10].content_store 	p_hit[10] 	0.03377211606511
scalar tree_4_3_u06_r12_network.node[10].content_store 	hits[10] 	1193
scalar tree_4_3_u06_r12_network.node[10].content_store 	misses[10] 	34132
scalar tree_4_3_u06_r12_network.node[10].content_store 	decision_yes[10] 	589
scalar tree_4_3_u06_r12_network.node[10].content_store 	decision_no[10] 	33543
scalar tree_4_3_u06_r12_network.node[10].content_store 	decision_ratio[10] 	0.017256533458338
scalar tree_4_3_u06_r12_network.node[11].core_layer 	interests[11] 	26560
scalar tree_4_3_u06_r12_network.node[11].core_layer 	data[11] 	25700
scalar tree_4_3_u06_r12_network.node[11].content_store 	p_hit[11] 	0.03234186746988
scalar tree_4_3_u06_r12_network.node[11].content_store 	hits[11] 	859
scalar tree_4_3_u06_r12_network.node[11].content_store 	misses[11] 	25701
scalar tree_4_3_u06_r12_network.node[11].content_store 	decision_yes[11] 	512
scalar tree_4_3_u06_r12_network.node[11].content_store 	decision_no[11] 	25188
scalar tree_4_3_u06_r12_network.node[11].content_store 	decision_ratio[11] 	0.019922178988327
scalar tree_4_3_u06_r12_network.node[12].core_layer 	interests[12] 	17466
scalar tree_4_3_u06_r12_network.node[12].core_layer 	data[12] 	17088
scalar tree_4_3_u06_r12_network.node[12].content_store 	p_hit[12] 	0.021699301500057
scalar tree_4_3_u06_r12_network.node[12].content_store 	hits[12] 	379
scalar tree_4_3_u06_r12_network.node[12].content_store 	misses[12] 	17087
scalar tree_4_3_u06_r12_network.node[12].content_store 	decision_yes[12] 	159
scalar tree_4_3_u06_r12_network.node[12].content_store 	decision_no[12] 	16929
scalar tree_4_3_u06_r12_network.node[12].content_store 	decision_ratio[12] 	0.0093047752808989
scalar tree_4_3_u06_r12_network.node[13].core_layer 	interests[13] 	12244
scalar tree_4_3_u06_r12_network.node[13].core_layer 	data[13] 	8950
scalar tree_4_3_u06_r12_network.node[13].content_store 	p_hit[13] 	0.26902972884678
scalar tree_4_3_u06_r12_network.node[13].content_store 	hits[13] 	3294
scalar tree_4_3_u06_r12_network.node[13].content_store 	misses[13] 	8950
scalar tree_4_3_u06_r12_network.node[13].content_store 	decision_yes[13] 	301
scalar tree_4_3_u06_r12_network.node[13].content_store 	decision_no[13] 	8649
scalar tree_4_3_u06_r12_network.node[13].content_store 	decision_ratio[13] 	0.033631284916201
scalar tree_4_3_u06_r12_network.node[14].core_layer 	interests[14] 	12059
scalar tree_4_3_u06_r12_network.node[14].core_layer 	data[14] 	8828
scalar tree_4_3_u06_r12_network.node[14].content_store 	p_hit[14] 	0.26793266440003
scalar tree_4_3_u06_r12_network.node[14].content_store 	hits[14] 	3231
scalar tree_4_3_u06_r12_network.node[14].content_store 	misses[14] 	8828
scalar tree_4_3_u06_r12_network.node[14].content_store 	decision_yes[14] 	294
scalar tree_4_3_u06_r12_network.node[14].content_store 	decision_no[14] 	8534
scalar tree_4_3_u06_r12_network.node[14].content_store 	decision_ratio[14] 	0.033303126415949
scalar tree_4_3_u06_r12_network.node[15].core_layer 	interests[15] 	12143
scalar tree_4_3_u06_r12_network.node[15].core_layer 	data[15] 	8802
scalar tree_4_3_u06_r12_network.node[15].content_store 	p_hit[15] 	0.27513793955365
scalar tree_4_3_u06_r12_network.node[15].content_store 	hits[15] 	3341
scalar tree_4_3_u06_r12_network.node[15].content_store 	misses[15] 	8802
scalar tree_4_3_u06_r12_network.node[15].content_store 	decision_yes[15] 	297
scalar tree_4_3_u06_r12_network.node[15].content_store 	decision_no[15] 	8505
scalar tree_4_3_u06_r12_network.node[15].content_store 	decision_ratio[15] 	0.033742331288344
scalar tree_4_3_u06_r12_network.node[16].core_layer 	interests[16] 	12147
scalar tree_4_3_u06_r12_network.node[16].core_layer 	data[16] 	8937
scalar tree_4_3_u06_r12_network.node[16].content_store 	p_hit[16] 	0.26426278093356
scalar tree_4_3_u06_r12_network.node[16].content_store 	hits[16] 	3210
scalar tree_4_3_u06_r12_network.node[16].content_store 	misses[16] 	8937
scalar tree_4_3_u06_r12_network.node[16].content_store 	decision_yes[16] 	317
scalar tree_4_3_u06_r12_network.node[16].content_store 	decision_no[16] 	8620
scalar tree_4_3_u06_r12_network.node[16].content_store 	decision_ratio[16] 	0.035470515833054
scalar tree_4_3_u06_r12_network.node[17].core_layer 	interests[17] 	12080
scalar tree_4_3_u06_r12_network.node[17].core_layer 	data[17] 	8905
scalar tree_4_3_u06_r12_network.node[17].content_store 	p_hit[17] 	0.26283112582781
scalar tree_4_3_u06_r12_network.node[17].content_store 	hits[17] 	3175
scalar tree_4_3_u06_r12_network.node[17].content_store 	misses[17] 	8905
scalar tree_4_3_u06_r12_network.node[17].content_store 	decision_yes[17] 	268
scalar tree_4_3_u06_r12_network.node[17].content_store 	decision_no[17] 	8637
scalar tree_4_3_u06_r12_network.node[17].content_store 	decision_ratio[17] 	0.030095451993262
scalar tree_4_3_u06_r12_network.node[18].core_layer 	interests[18] 	11818
scalar tree_4_3_u06_r12_network.node[18].core_layer 	data[18] 	8646
scalar tree_4_3_u06_r12_network.node[18].content_store 	p_hit[18] 	0.2684041292943
scalar tree_4_3_u06_r12_network.node[18].content_store 	hits[18] 	3172
scalar tree_4_3_u06_r12_network.node[18].content_store 	misses[18] 	8646
scalar tree_4_3_u06_r12_network.node[18].content_store 	decision_yes[18] 	300
scalar tree_4_3_u06_r12_network.node[18].content_store 	decision_no[18] 	8346
scalar tree_4_3_u06_r12_network.node[18].content_store 	decision_ratio[18] 	0.03469812630118
scalar tree_4_3_u06_r12_network.node[19].core_layer 	interests[19] 	12077
scalar tree_4_3_u06_r12_network.node[19].core_layer 	data[19] 	8780
scalar tree_4_3_u06_r12_network.node[19].content_store 	p_hit[19] 	0.27299826115757
scalar tree_4_3_u06_r12_network.node[19].content_store 	hits[19] 	3297
scalar tree_4_3_u06_r12_network.node[19].content_store 	misses[19] 	8780
scalar tree_4_3_u06_r12_network.node[19].content_store 	decision_yes[19] 	288
scalar tree_4_3_u06_r12_network.node[19].content_store 	decision_no[19] 	8492
scalar tree_4_3_u06_r12_network.node[19].content_store 	decision_ratio[19] 	0.032801822323462
scalar tree_4_3_u06_r12_network.node[20].core_layer 	interests[20] 	11735
scalar tree_4_3_u06_r12_network.node[20].core_layer 	data[20] 	8727
scalar tree_4_3_u06_r12_network.node[20].content_store 	p_hit[20] 	0.25632722624627
scalar tree_4_3_u06_r12_network.node[20].content_store 	hits[20] 	3008
scalar tree_4_3_u06_r12_network.node[20].content_store 	misses[20] 	8727
scalar tree_4_3_u06_r12_network.node[20].content_store 	decision_yes[20] 	316
scalar tree_4_3_u06_r12_network.node[20].content_store 	decision_no[20] 	8411
scalar tree_4_3_u06_r12_network.node[20].content_store 	decision_ratio[20] 	0.036209464879111
scalar tree_4_3_u06_r12_network.node[21].core_layer 	interests[21] 	11863
scalar tree_4_3_u06_r12_network.node[21].core_layer 	data[21] 	8746
scalar tree_4_3_u06_r12_network.node[21].content_store 	p_hit[21] 	0.26274972603894
scalar tree_4_3_u06_r12_network.node[21].content_store 	hits[21] 	3117
scalar tree_4_3_u06_r12_network.node[21].content_store 	misses[21] 	8746
scalar tree_4_3_u06_r12_network.node[21].content_store 	decision_yes[21] 	280
scalar tree_4_3_u06_r12_network.node[21].content_store 	decision_no[21] 	8466
scalar tree_4_3_u06_r12_network.node[21].content_store 	decision_ratio[21] 	0.032014635261834
scalar tree_4_3_u06_r12_network.node[22].core_layer 	interests[22] 	12014
scalar tree_4_3_u06_r12_network.node[22].core_layer 	data[22] 	8664
scalar tree_4_3_u06_r12_network.node[22].content_store 	p_hit[22] 	0.27884135175628
scalar tree_4_3_u06_r12_network.node[22].content_store 	hits[22] 	3350
scalar tree_4_3_u06_r12_network.node[22].content_store 	misses[22] 	8664
scalar tree_4_3_u06_r12_network.node[22].content_store 	decision_yes[22] 	296
scalar tree_4_3_u06_r12_network.node[22].content_store 	decision_no[22] 	8368
scalar tree_4_3_u06_r12_network.node[22].content_store 	decision_ratio[22] 	0.034164358264081
scalar tree_4_3_u06_r12_network.node[23].core_layer 	interests[23] 	11977
scalar tree_4_3_u06_r12_network.node[23].core_layer 	data[23] 	8762
scalar tree_4_3_u06_r12_network.node[23].content_store 	p_hit[23] 	0.2684311597228
scalar tree_4_3_u06_r12_network.node[23].content_store 	hits[23] 	3215
scalar tree_4_3_u06_r12_network.node[23].content_store 	misses[23] 	8762
scalar tree_4_3_u06_r12_network.node[23].content_store 	decision_yes[23] 	302
scalar tree_4_3_u06_r12_network.node[23].content_store 	decision_no[23] 	8460
scalar tree_4_3_u06_r12_network.node[23].content_store 	decision_ratio[23] 	0.034467016662862
scalar tree_4_3_u06_r12_network.node[24].core_layer 	interests[24] 	12163
scalar tree_4_3_u06_r12_network.node[24].core_layer 	data[24] 	8908
scalar tree_4_3_u06_r12_network.node[24].content_store 	p_hit[24] 	0.26753268108197
scalar tree_4_3_u06_r12_network.node[24].content_store 	hits[24] 	3254
scalar tree_4_3_u06_r12_network.node[24].content_store 	misses[24] 	8909
scalar tree_4_3_u06_r12_network.node[24].content_store 	decision_yes[24] 	297
scalar tree_4_3_u06_r12_network.node[24].content_store 	decision_no[24] 	8611
scalar tree_4_3_u06_r12_network.node[24].content_store 	decision_ratio[24] 	0.033340817242928
scalar tree_4_3_u06_r12_network.node[25].core_layer 	interests[25] 	12057
scalar tree_4_3_u06_r12_network.node[25].core_layer 	data[25] 	8888
scalar tree_4_3_u06_r12_network.node[25].content_store 	p_hit[25] 	0.2628348677117
scalar tree_4_3_u06_r12_network.node[25].content_store 	hits[25] 	3169
scalar tree_4_3_u06_r12_network.node[25].content_store 	misses[25] 	8888
scalar tree_4_3_u06_r12_network.node[25].content_store 	decision_yes[25] 	307
scalar tree_4_3_u06_r12_network.node[25].content_store 	decision_no[25] 	8581
scalar tree_4_3_u06_r12_network.node[25].content_store 	decision_ratio[25] 	0.03454095409541
scalar tree_4_3_u06_r12_network.node[26].core_layer 	interests[26] 	12123
scalar tree_4_3_u06_r12_network.node[26].core_layer 	data[26] 	8923
scalar tree_4_3_u06_r12_network.node[26].content_store 	p_hit[26] 	0.2639610657428
scalar tree_4_3_u06_r12_network.node[26].content_store 	hits[26] 	3200
scalar tree_4_3_u06_r12_network.node[26].content_store 	misses[26] 	8923
scalar tree_4_3_u06_r12_network.node[26].content_store 	decision_yes[26] 	307
scalar tree_4_3_u06_r12_network.node[26].content_store 	decision_no[26] 	8616
scalar tree_4_3_u06_r12_network.node[26].content_store 	decision_ratio[26] 	0.034405469012664
scalar tree_4_3_u06_r12_network.node[27].core_layer 	interests[27] 	11972
scalar tree_4_3_u06_r12_network.node[27].core_layer 	data[27] 	8897
scalar tree_4_3_u06_r12_network.node[27].content_store 	p_hit[27] 	0.25684931506849
scalar tree_4_3_u06_r12_network.node[27].content_store 	hits[27] 	3075
scalar tree_4_3_u06_r12_network.node[27].content_store 	misses[27] 	8897
scalar tree_4_3_u06_r12_network.node[27].content_store 	decision_yes[27] 	307
scalar tree_4_3_u06_r12_network.node[27].content_store 	decision_no[27] 	8590
scalar tree_4_3_u06_r12_network.node[27].content_store 	decision_ratio[27] 	0.034506013262898
scalar tree_4_3_u06_r12_network.node[28].core_layer 	interests[28] 	11901
scalar tree_4_3_u06_r12_network.node[28].core_layer 	data[28] 	8707
scalar tree_4_3_u06_r12_network.node[28].content_store 	p_hit[28] 	0.26838080833543
scalar tree_4_3_u06_r12_network.node[28].content_store 	hits[28] 	3194
scalar tree_4_3_u06_r12_network.node[28].content_store 	misses[28] 	8707
scalar tree_4_3_u06_r12_network.node[28].content_store 	decision_yes[28] 	289
scalar tree_4_3_u06_r12_network.node[28].content_store 	decision_no[28] 	8418
scalar tree_4_3_u06_r12_network.node[28].content_store 	decision_ratio[28] 	0.033191684851269
scalar tree_4_3_u06_r12_network.node[29].core_layer 	interests[29] 	12084
scalar tree_4_3_u06_r12_network.node[29].core_layer 	data[29] 	8925
scalar tree_4_3_u06_r12_network.node[29].content_store 	p_hit[29] 	0.26142005958292
scalar tree_4_3_u06_r12_network.node[29].content_store 	hits[29] 	3159
scalar tree_4_3_u06_r12_network.node[29].content_store 	misses[29] 	8925
scalar tree_4_3_u06_r12_network.node[29].content_store 	decision_yes[29] 	275
scalar tree_4_3_u06_r12_network.node[29].content_store 	decision_no[29] 	8650
scalar tree_4_3_u06_r12_network.node[29].content_store 	decision_ratio[29] 	0.030812324929972
scalar tree_4_3_u06_r12_network.node[30].core_layer 	interests[30] 	12080
scalar tree_4_3_u06_r12_network.node[30].core_layer 	data[30] 	8957
scalar tree_4_3_u06_r12_network.node[30].content_store 	p_hit[30] 	0.25860927152318
scalar tree_4_3_u06_r12_network.node[30].content_store 	hits[30] 	3124
scalar tree_4_3_u06_r12_network.node[30].content_store 	misses[30] 	8956
scalar tree_4_3_u06_r12_network.node[30].content_store 	decision_yes[30] 	244
scalar tree_4_3_u06_r12_network.node[30].content_store 	decision_no[30] 	8713
scalar tree_4_3_u06_r12_network.node[30].content_store 	decision_ratio[30] 	0.02724126381601
scalar tree_4_3_u06_r12_network.node[31].core_layer 	interests[31] 	11901
scalar tree_4_3_u06_r12_network.node[31].core_layer 	data[31] 	8753
scalar tree_4_3_u06_r12_network.node[31].content_store 	p_hit[31] 	0.26443156037308
scalar tree_4_3_u06_r12_network.node[31].content_store 	hits[31] 	3147
scalar tree_4_3_u06_r12_network.node[31].content_store 	misses[31] 	8754
scalar tree_4_3_u06_r12_network.node[31].content_store 	decision_yes[31] 	307
scalar tree_4_3_u06_r12_network.node[31].content_store 	decision_no[31] 	8446
scalar tree_4_3_u06_r12_network.node[31].content_store 	decision_ratio[31] 	0.035073689020907
scalar tree_4_3_u06_r12_network.node[32].core_layer 	interests[32] 	12128
scalar tree_4_3_u06_r12_network.node[32].core_layer 	data[32] 	8843
scalar tree_4_3_u06_r12_network.node[32].content_store 	p_hit[32] 	0.27086081794195
scalar tree_4_3_u06_r12_network.node[32].content_store 	hits[32] 	3285
scalar tree_4_3_u06_r12_network.node[32].content_store 	misses[32] 	8843
scalar tree_4_3_u06_r12_network.node[32].content_store 	decision_yes[32] 	292
scalar tree_4_3_u06_r12_network.node[32].content_store 	decision_no[32] 	8551
scalar tree_4_3_u06_r12_network.node[32].content_store 	decision_ratio[32] 	0.033020468166912
scalar tree_4_3_u06_r12_network.node[33].core_layer 	interests[33] 	11959
scalar tree_4_3_u06_r12_network.node[33].core_layer 	data[33] 	8878
scalar tree_4_3_u06_r12_network.node[33].content_store 	p_hit[33] 	0.25763023664186
scalar tree_4_3_u06_r12_network.node[33].content_store 	hits[33] 	3081
scalar tree_4_3_u06_r12_network.node[33].content_store 	misses[33] 	8878
scalar tree_4_3_u06_r12_network.node[33].content_store 	decision_yes[33] 	298
scalar tree_4_3_u06_r12_network.node[33].content_store 	decision_no[33] 	8580
scalar tree_4_3_u06_r12_network.node[33].content_store 	decision_ratio[33] 	0.033566118495157
scalar tree_4_3_u06_r12_network.node[34].core_layer 	interests[34] 	12138
scalar tree_4_3_u06_r12_network.node[34].core_layer 	data[34] 	8852
scalar tree_4_3_u06_r12_network.node[34].content_store 	p_hit[34] 	0.27080243862251
scalar tree_4_3_u06_r12_network.node[34].content_store 	hits[34] 	3287
scalar tree_4_3_u06_r12_network.node[34].content_store 	misses[34] 	8851
scalar tree_4_3_u06_r12_network.node[34].content_store 	decision_yes[34] 	296
scalar tree_4_3_u06_r12_network.node[34].content_store 	decision_no[34] 	8556
scalar tree_4_3_u06_r12_network.node[34].content_store 	decision_ratio[34] 	0.033438770899232
scalar tree_4_3_u06_r12_network.node[35].core_layer 	interests[35] 	12173
scalar tree_4_3_u06_r12_network.node[35].core_layer 	data[35] 	8951
scalar tree_4_3_u06_r12_network.node[35].content_store 	p_hit[35] 	0.26468413702456
scalar tree_4_3_u06_r12_network.node[35].content_store 	hits[35] 	3222
scalar tree_4_3_u06_r12_network.node[35].content_store 	misses[35] 	8951
scalar tree_4_3_u06_r12_network.node[35].content_store 	decision_yes[35] 	296
scalar tree_4_3_u06_r12_network.node[35].content_store 	decision_no[35] 	8655
scalar tree_4_3_u06_r12_network.node[35].content_store 	decision_ratio[35] 	0.033068930845716
scalar tree_4_3_u06_r12_network.node[36].core_layer 	interests[36] 	11976
scalar tree_4_3_u06_r12_network.node[36].core_layer 	data[36] 	8787
scalar tree_4_3_u06_r12_network.node[36].content_store 	p_hit[36] 	0.26628256513026
scalar tree_4_3_u06_r12_network.node[36].content_store 	hits[36] 	3189
scalar tree_4_3_u06_r12_network.node[36].content_store 	misses[36] 	8787
scalar tree_4_3_u06_r12_network.node[36].content_store 	decision_yes[36] 	279
scalar tree_4_3_u06_r12_network.node[36].content_store 	decision_no[36] 	8508
scalar tree_4_3_u06_r12_network.node[36].content_store 	decision_ratio[36] 	0.03175145100717
scalar tree_4_3_u06_r12_network.node[37].core_layer 	interests[37] 	12014
scalar tree_4_3_u06_r12_network.node[37].core_layer 	data[37] 	8767
scalar tree_4_3_u06_r12_network.node[37].content_store 	p_hit[37] 	0.27035125686699
scalar tree_4_3_u06_r12_network.node[37].content_store 	hits[37] 	3248
scalar tree_4_3_u06_r12_network.node[37].content_store 	misses[37] 	8766
scalar tree_4_3_u06_r12_network.node[37].content_store 	decision_yes[37] 	191
scalar tree_4_3_u06_r12_network.node[37].content_store 	decision_no[37] 	8576
scalar tree_4_3_u06_r12_network.node[37].content_store 	decision_ratio[37] 	0.021786243869054
scalar tree_4_3_u06_r12_network.node[38].core_layer 	interests[38] 	12039
scalar tree_4_3_u06_r12_network.node[38].core_layer 	data[38] 	8822
scalar tree_4_3_u06_r12_network.node[38].content_store 	p_hit[38] 	0.26721488495722
scalar tree_4_3_u06_r12_network.node[38].content_store 	hits[38] 	3217
scalar tree_4_3_u06_r12_network.node[38].content_store 	misses[38] 	8822
scalar tree_4_3_u06_r12_network.node[38].content_store 	decision_yes[38] 	284
scalar tree_4_3_u06_r12_network.node[38].content_store 	decision_no[38] 	8538
scalar tree_4_3_u06_r12_network.node[38].content_store 	decision_ratio[38] 	0.032192246656087
scalar tree_4_3_u06_r12_network.node[39].core_layer 	interests[39] 	11812
scalar tree_4_3_u06_r12_network.node[39].core_layer 	data[39] 	8700
scalar tree_4_3_u06_r12_network.node[39].content_store 	p_hit[39] 	0.26337622756519
scalar tree_4_3_u06_r12_network.node[39].content_store 	hits[39] 	3111
scalar tree_4_3_u06_r12_network.node[39].content_store 	misses[39] 	8701
scalar tree_4_3_u06_r12_network.node[39].content_store 	decision_yes[39] 	188
scalar tree_4_3_u06_r12_network.node[39].content_store 	decision_no[39] 	8512
scalar tree_4_3_u06_r12_network.node[39].content_store 	decision_ratio[39] 	0.021609195402299
scalar tree_4_3_u06_r12_network.client[13] 	hdistance[13] 	2.8221986278994
scalar tree_4_3_u06_r12_network.client[13] 	downloads[13] 	12244
scalar tree_4_3_u06_r12_network.client[13] 	avg_time[13] 	0.004266249827
scalar tree_4_3_u06_r12_network.client[14] 	hdistance[14] 	2.8263537606767
scalar tree_4_3_u06_r12_network.client[14] 	downloads[14] 	12059
scalar tree_4_3_u06_r12_network.client[14] 	avg_time[14] 	0.004272506606
scalar tree_4_3_u06_r12_network.client[15] 	hdistance[15] 	2.7946141810096
scalar tree_4_3_u06_r12_network.client[15] 	downloads[15] 	12143
scalar tree_4_3_u06_r12_network.client[15] 	avg_time[15] 	0.004226076781
scalar tree_4_3_u06_r12_network.client[16] 	hdistance[16] 	2.8291759282127
scalar tree_4_3_u06_r12_network.client[16] 	downloads[16] 	12147
scalar tree_4_3_u06_r12_network.client[16] 	avg_time[16] 	0.004282575046
scalar tree_4_3_u06_r12_network.client[17] 	hdistance[17] 	2.850082781457
scalar tree_4_3_u06_r12_network.client[17] 	downloads[17] 	12080
scalar tree_4_3_u06_r12_network.client[17] 	avg_time[17] 	0.004308810536
scalar tree_4_3_u06_r12_network.client[18] 	hdistance[18] 	2.8157894736842
scalar tree_4_3_u06_r12_network.client[18] 	downloads[18] 	11818
scalar tree_4_3_u06_r12_network.client[18] 	avg_time[18] 	0.004260616444
scalar tree_4_3_u06_r12_network.client[19] 	hdistance[19] 	2.7957274157489
scalar tree_4_3_u06_r12_network.client[19] 	downloads[19] 	12077
scalar tree_4_3_u06_r12_network.client[19] 	avg_time[19] 	0.004231345809
scalar tree_4_3_u06_r12_network.client[20] 	hdistance[20] 	2.8573498082659
scalar tree_4_3_u06_r12_network.client[20] 	downloads[20] 	11735
scalar tree_4_3_u06_r12_network.client[20] 	avg_time[20] 	0.004324937037
scalar tree_4_3_u06_r12_network.client[21] 	hdistance[21] 	2.8385737165978
scalar tree_4_3_u06_r12_network.client[21] 	downloads[21] 	11863
scalar tree_4_3_u06_r12_network.client[21] 	avg_time[21] 	0.004294937197
scalar tree_4_3_u06_r12_network.client[22] 	hdistance[22] 	2.7866655568503
scalar tree_4_3_u06_r12_network.client[22] 	downloads[22] 	12014
scalar tree_4_3_u06_r12_network.client[22] 	avg_time[22] 	0.004211084087
scalar tree_4_3_u06_r12_network.client[23] 	hdistance[23] 	2.8218251648994
scalar tree_4_3_u06_r12_network.client[23] 	downloads[23] 	11977
scalar tree_4_3_u06_r12_network.client[23] 	avg_time[23] 	0.004265672874
scalar tree_4_3_u06_r12_network.client[24] 	hdistance[24] 	2.8255221180727
scalar tree_4_3_u06_r12_network.client[24] 	downloads[24] 	12162
scalar tree_4_3_u06_r12_network.client[24] 	avg_time[24] 	0.004272099955
scalar tree_4_3_u06_r12_network.client[25] 	hdistance[25] 	2.8433275275773
scalar tree_4_3_u06_r12_network.client[25] 	downloads[25] 	12057
scalar tree_4_3_u06_r12_network.client[25] 	avg_time[25] 	0.004299573939
scalar tree_4_3_u06_r12_network.client[26] 	hdistance[26] 	2.8310649179246
scalar tree_4_3_u06_r12_network.client[26] 	downloads[26] 	12123
scalar tree_4_3_u06_r12_network.client[26] 	avg_time[26] 	0.004284744979
scalar tree_4_3_u06_r12_network.client[27] 	hdistance[27] 	2.8614266622118
scalar tree_4_3_u06_r12_network.client[27] 	downloads[27] 	11972
scalar tree_4_3_u06_r12_network.client[27] 	avg_time[27] 	0.0043289328
scalar tree_4_3_u06_r12_network.client[28] 	hdistance[28] 	2.8269053020754
scalar tree_4_3_u06_r12_network.client[28] 	downloads[28] 	11901
scalar tree_4_3_u06_r12_network.client[28] 	avg_time[28] 	0.004271234739
scalar tree_4_3_u06_r12_network.client[29] 	hdistance[29] 	2.8541046011254
scalar tree_4_3_u06_r12_network.client[29] 	downloads[29] 	12084
scalar tree_4_3_u06_r12_network.client[29] 	avg_time[29] 	0.004315126403
scalar tree_4_3_u06_r12_network.client[30] 	hdistance[30] 	2.8590348481086
scalar tree_4_3_u06_r12_network.client[30] 	downloads[30] 	12081
scalar tree_4_3_u06_r12_network.client[30] 	avg_time[30] 	0.004328115504
scalar tree_4_3_u06_r12_network.client[31] 	hdistance[31] 	2.8363865546219
scalar tree_4_3_u06_r12_network.client[31] 	downloads[31] 	11900
scalar tree_4_3_u06_r12_network.client[31] 	avg_time[31] 	0.004286999179
scalar tree_4_3_u06_r12_network.client[32] 	hdistance[32] 	2.8132420844327
scalar tree_4_3_u06_r12_network.client[32] 	downloads[32] 	12128
scalar tree_4_3_u06_r12_network.client[32] 	avg_time[32] 	0.00425572425
scalar tree_4_3_u06_r12_network.client[33] 	hdistance[33] 	2.863617359311
scalar tree_4_3_u06_r12_network.client[33] 	downloads[33] 	11959
scalar tree_4_3_u06_r12_network.client[33] 	avg_time[33] 	0.004329623217
scalar tree_4_3_u06_r12_network.client[34] 	hdistance[34] 	2.8087980888047
scalar tree_4_3_u06_r12_network.client[34] 	downloads[34] 	12139
scalar tree_4_3_u06_r12_network.client[34] 	avg_time[34] 	0.004250758936
scalar tree_4_3_u06_r12_network.client[35] 	hdistance[35] 	2.828883594841
scalar tree_4_3_u06_r12_network.client[35] 	downloads[35] 	12173
scalar tree_4_3_u06_r12_network.client[35] 	avg_time[35] 	0.004282454535
scalar tree_4_3_u06_r12_network.client[36] 	hdistance[36] 	2.8309953239813
scalar tree_4_3_u06_r12_network.client[36] 	downloads[36] 	11976
scalar tree_4_3_u06_r12_network.client[36] 	avg_time[36] 	0.004282395148
scalar tree_4_3_u06_r12_network.client[37] 	hdistance[37] 	2.8519350811486
scalar tree_4_3_u06_r12_network.client[37] 	downloads[37] 	12015
scalar tree_4_3_u06_r12_network.client[37] 	avg_time[37] 	0.004301786425
scalar tree_4_3_u06_r12_network.client[38] 	hdistance[38] 	2.826397541324
scalar tree_4_3_u06_r12_network.client[38] 	downloads[38] 	12039
scalar tree_4_3_u06_r12_network.client[38] 	avg_time[38] 	0.004276071596
scalar tree_4_3_u06_r12_network.client[39] 	hdistance[39] 	2.8785030903395
scalar tree_4_3_u06_r12_network.client[39] 	downloads[39] 	11811
scalar tree_4_3_u06_r12_network.client[39] 	avg_time[39] 	0.004341564984
