version 2
run General-3-20160826-16:44:02-21255
attr D fix0.005
attr F nrr
attr R lru
attr a 0.9
attr configname General
attr datetime 20160826-16:44:02
attr experiment General
attr inifile hw5115/scenario_C/omnetp.ini
attr iterationvars "$net=abilene, $rep=1, $a=0.9, $F=nrr, $D=fix0.005, $R=lru, $window=60, $variance=0.05, $mytime=600"
attr iterationvars2 "$net=abilene, $rep=1, $a=0.9, $F=nrr, $D=fix0.005, $R=lru, $window=60, $variance=0.05, $mytime=600, $repetition=0"
attr measurement "$net=abilene, $rep=1, $a=0.9, $F=nrr, $D=fix0.005, $R=lru, $window=60, $variance=0.05, $mytime=600"
attr mytime 600
attr net abilene
attr network networks.${net=abilene}_network
attr processid 21255
attr rep 1
attr repetition 0
attr replication #0
attr resultdir results
attr runnumber 3
attr seedset 1
attr variance 0.05
attr window 60

scalar . 	a 	0.9
scalar . 	mytime 	600
scalar . 	rep 	1
scalar . 	variance 	0.05
scalar . 	window 	60
scalar abilene_network.content_distribution 	repo-0 	10
scalar abilene_network.content_distribution 	repo-1 	7
scalar abilene_network.content_distribution 	repo-2 	5
scalar abilene_network.content_distribution 	repo-3 	1
scalar abilene_network.content_distribution 	repo-4 	8
scalar abilene_network.content_distribution 	repo-5 	2
scalar abilene_network.content_distribution 	repo-6 	9
scalar abilene_network.content_distribution 	repo-7 	4
scalar abilene_network.content_distribution 	repo-8 	6
scalar abilene_network.content_distribution 	repo-9 	3
scalar abilene_network.content_distribution 	repo-10 	0
scalar abilene_network.content_distribution 	client-0 	7
scalar abilene_network.content_distribution 	client-1 	5
scalar abilene_network.content_distribution 	client-2 	9
scalar abilene_network.content_distribution 	client-3 	6
scalar abilene_network.content_distribution 	client-4 	8
scalar abilene_network.content_distribution 	client-5 	2
scalar abilene_network.content_distribution 	client-6 	1
scalar abilene_network.content_distribution 	client-7 	10
scalar abilene_network.content_distribution 	client-8 	0
scalar abilene_network.content_distribution 	client-9 	3
scalar abilene_network.content_distribution 	client-10 	4
scalar abilene_network.content_distribution 	repo-0_card 	8956
scalar abilene_network.content_distribution 	repo-0_price 	0
scalar abilene_network.content_distribution 	repo-1_card 	9061
scalar abilene_network.content_distribution 	repo-1_price 	0
scalar abilene_network.content_distribution 	repo-2_card 	9017
scalar abilene_network.content_distribution 	repo-2_price 	0
scalar abilene_network.content_distribution 	repo-3_card 	9157
scalar abilene_network.content_distribution 	repo-3_price 	0
scalar abilene_network.content_distribution 	repo-4_card 	9262
scalar abilene_network.content_distribution 	repo-4_price 	0
scalar abilene_network.content_distribution 	repo-5_card 	9009
scalar abilene_network.content_distribution 	repo-5_price 	0
scalar abilene_network.content_distribution 	repo-6_card 	9067
scalar abilene_network.content_distribution 	repo-6_price 	0
scalar abilene_network.content_distribution 	repo-7_card 	9189
scalar abilene_network.content_distribution 	repo-7_price 	0
scalar abilene_network.content_distribution 	repo-8_card 	9068
scalar abilene_network.content_distribution 	repo-8_price 	0
scalar abilene_network.content_distribution 	repo-9_card 	9019
scalar abilene_network.content_distribution 	repo-9_price 	0
scalar abilene_network.content_distribution 	repo-10_card 	9195
scalar abilene_network.content_distribution 	repo-10_price 	0
scalar abilene_network.statistics 	stabilization_time 	1617.5
scalar abilene_network.statistics 	p_hit 	0.14841935821751
scalar abilene_network.statistics 	interests 	31275.363636364
scalar abilene_network.statistics 	data 	19288.727272727
scalar abilene_network.statistics 	hdistance 	2.2411641932513
scalar abilene_network.statistics 	avg_time 	0.010334604449
scalar abilene_network.statistics 	downloads 	131848
scalar abilene_network.statistics 	total_cost 	0
scalar abilene_network.statistics 	total_replicas 	100000
scalar abilene_network.statistics 	inner_hit 	0.36818154238214
scalar abilene_network.node[0].core_layer 	interests[0] 	19512
scalar abilene_network.node[0].core_layer 	repo_load[0] 	7296
scalar abilene_network.node[0].core_layer 	data[0] 	8713
scalar abilene_network.node[0].core_layer 	repo_int[0] 	83304
scalar abilene_network.node[0].content_store 	p_hit[0] 	0.17947929479295
scalar abilene_network.node[0].content_store 	hits[0] 	3502
scalar abilene_network.node[0].content_store 	misses[0] 	16010
scalar abilene_network.node[0].content_store 	decision_yes[0] 	76
scalar abilene_network.node[0].content_store 	decision_no[0] 	15933
scalar abilene_network.node[0].content_store 	decision_ratio[0] 	0.0047473296270848
scalar abilene_network.node[1].core_layer 	interests[1] 	37452
scalar abilene_network.node[1].core_layer 	repo_load[1] 	7799
scalar abilene_network.node[1].core_layer 	data[1] 	24911
scalar abilene_network.node[1].content_store 	p_hit[1] 	0.12658870020293
scalar abilene_network.node[1].content_store 	hits[1] 	4741
scalar abilene_network.node[1].content_store 	misses[1] 	32711
scalar abilene_network.node[1].content_store 	decision_yes[1] 	159
scalar abilene_network.node[1].content_store 	decision_no[1] 	32551
scalar abilene_network.node[1].content_store 	decision_ratio[1] 	0.0048608988077041
scalar abilene_network.node[2].core_layer 	interests[2] 	50334
scalar abilene_network.node[2].core_layer 	repo_load[2] 	7876
scalar abilene_network.node[2].core_layer 	data[2] 	36864
scalar abilene_network.node[2].content_store 	p_hit[2] 	0.11113760082648
scalar abilene_network.node[2].content_store 	hits[2] 	5594
scalar abilene_network.node[2].content_store 	misses[2] 	44740
scalar abilene_network.node[2].content_store 	decision_yes[2] 	216
scalar abilene_network.node[2].content_store 	decision_no[2] 	44524
scalar abilene_network.node[2].content_store 	decision_ratio[2] 	0.0048278945015646
scalar abilene_network.node[3].core_layer 	interests[3] 	46881
scalar abilene_network.node[3].core_layer 	repo_load[3] 	7988
scalar abilene_network.node[3].core_layer 	data[3] 	33649
scalar abilene_network.node[3].content_store 	p_hit[3] 	0.11183635161366
scalar abilene_network.node[3].content_store 	hits[3] 	5243
scalar abilene_network.node[3].content_store 	misses[3] 	41638
scalar abilene_network.node[3].content_store 	decision_yes[3] 	208
scalar abilene_network.node[3].content_store 	decision_no[3] 	41429
scalar abilene_network.node[3].content_store 	decision_ratio[3] 	0.0049955568364676
scalar abilene_network.node[4].core_layer 	interests[4] 	27985
scalar abilene_network.node[4].core_layer 	repo_load[4] 	7846
scalar abilene_network.node[4].core_layer 	data[4] 	15987
scalar abilene_network.node[4].content_store 	p_hit[4] 	0.14836519564052
scalar abilene_network.node[4].content_store 	hits[4] 	4152
scalar abilene_network.node[4].content_store 	misses[4] 	23833
scalar abilene_network.node[4].content_store 	decision_yes[4] 	135
scalar abilene_network.node[4].content_store 	decision_no[4] 	23698
scalar abilene_network.node[4].content_store 	decision_ratio[4] 	0.0056644148869215
scalar abilene_network.node[5].core_layer 	interests[5] 	21781
scalar abilene_network.node[5].core_layer 	repo_load[5] 	7344
scalar abilene_network.node[5].core_layer 	data[5] 	10461
scalar abilene_network.node[5].content_store 	p_hit[5] 	0.18249850787383
scalar abilene_network.node[5].content_store 	hits[5] 	3975
scalar abilene_network.node[5].content_store 	misses[5] 	17806
scalar abilene_network.node[5].content_store 	decision_yes[5] 	87
scalar abilene_network.node[5].content_store 	decision_no[5] 	17718
scalar abilene_network.node[5].content_store 	decision_ratio[5] 	0.0048862679022746
scalar abilene_network.node[6].core_layer 	interests[6] 	24538
scalar abilene_network.node[6].core_layer 	repo_load[6] 	7250
scalar abilene_network.node[6].core_layer 	data[6] 	13479
scalar abilene_network.node[6].content_store 	p_hit[6] 	0.15526937810743
scalar abilene_network.node[6].content_store 	hits[6] 	3810
scalar abilene_network.node[6].content_store 	misses[6] 	20728
scalar abilene_network.node[6].content_store 	decision_yes[6] 	93
scalar abilene_network.node[6].content_store 	decision_no[6] 	20636
scalar abilene_network.node[6].content_store 	decision_ratio[6] 	0.0044864682329104
scalar abilene_network.node[7].core_layer 	interests[7] 	34165
scalar abilene_network.node[7].core_layer 	repo_load[7] 	7525
scalar abilene_network.node[7].core_layer 	data[7] 	21914
scalar abilene_network.node[7].content_store 	p_hit[7] 	0.13832869896092
scalar abilene_network.node[7].content_store 	hits[7] 	4726
scalar abilene_network.node[7].content_store 	misses[7] 	29439
scalar abilene_network.node[7].content_store 	decision_yes[7] 	145
scalar abilene_network.node[7].content_store 	decision_no[7] 	29294
scalar abilene_network.node[7].content_store 	decision_ratio[7] 	0.0049254390434458
scalar abilene_network.node[8].core_layer 	interests[8] 	33023
scalar abilene_network.node[8].core_layer 	repo_load[8] 	7639
scalar abilene_network.node[8].core_layer 	data[8] 	20836
scalar abilene_network.node[8].content_store 	p_hit[8] 	0.13775247554735
scalar abilene_network.node[8].content_store 	hits[8] 	4549
scalar abilene_network.node[8].content_store 	misses[8] 	28474
scalar abilene_network.node[8].content_store 	decision_yes[8] 	138
scalar abilene_network.node[8].content_store 	decision_no[8] 	28337
scalar abilene_network.node[8].content_store 	decision_ratio[8] 	0.004846356453029
scalar abilene_network.node[9].core_layer 	interests[9] 	24449
scalar abilene_network.node[9].core_layer 	repo_load[9] 	7174
scalar abilene_network.node[9].core_layer 	data[9] 	13265
scalar abilene_network.node[9].content_store 	p_hit[9] 	0.1638921837294
scalar abilene_network.node[9].content_store 	hits[9] 	4007
scalar abilene_network.node[9].content_store 	misses[9] 	20442
scalar abilene_network.node[9].content_store 	decision_yes[9] 	101
scalar abilene_network.node[9].content_store 	decision_no[9] 	20338
scalar abilene_network.node[9].content_store 	decision_ratio[9] 	0.0049415333431185
scalar abilene_network.node[10].core_layer 	interests[10] 	23909
scalar abilene_network.node[10].core_layer 	repo_load[10] 	7567
scalar abilene_network.node[10].core_layer 	data[10] 	12097
scalar abilene_network.node[10].content_store 	p_hit[10] 	0.17746455309716
scalar abilene_network.node[10].content_store 	hits[10] 	4243
scalar abilene_network.node[10].content_store 	misses[10] 	19666
scalar abilene_network.node[10].content_store 	decision_yes[10] 	92
scalar abilene_network.node[10].content_store 	decision_no[10] 	19572
scalar abilene_network.node[10].content_store 	decision_ratio[10] 	0.0046786004882018
scalar abilene_network.client[0] 	hdistance[0] 	2.6106000506372
scalar abilene_network.client[0] 	downloads[0] 	11849
scalar abilene_network.client[0] 	avg_time[0] 	0.013836823163
scalar abilene_network.client[1] 	hdistance[1] 	2.12832263978
scalar abilene_network.client[1] 	downloads[1] 	12001
scalar abilene_network.client[1] 	avg_time[1] 	0.009012905938
scalar abilene_network.client[2] 	hdistance[2] 	1.8682022285049
scalar abilene_network.client[2] 	downloads[2] 	12026
scalar abilene_network.client[2] 	avg_time[2] 	0.007674428696
scalar abilene_network.client[3] 	hdistance[3] 	1.9681191117093
scalar abilene_network.client[3] 	downloads[3] 	11888
scalar abilene_network.client[3] 	avg_time[3] 	0.007932868964
scalar abilene_network.client[4] 	hdistance[4] 	2.3241689577606
scalar abilene_network.client[4] 	downloads[4] 	12003
scalar abilene_network.client[4] 	avg_time[4] 	0.00846787171
scalar abilene_network.client[5] 	hdistance[5] 	2.6216974900925
scalar abilene_network.client[5] 	downloads[5] 	12112
scalar abilene_network.client[5] 	avg_time[5] 	0.010973699324
scalar abilene_network.client[6] 	hdistance[6] 	2.429732194677
scalar abilene_network.client[6] 	downloads[6] 	12061
scalar abilene_network.client[6] 	avg_time[6] 	0.011005061245
scalar abilene_network.client[7] 	hdistance[7] 	2.0386416861827
scalar abilene_network.client[7] 	downloads[7] 	11956
scalar abilene_network.client[7] 	avg_time[7] 	0.008753181492
scalar abilene_network.client[8] 	hdistance[8] 	1.9981833195706
scalar abilene_network.client[8] 	downloads[8] 	12110
scalar abilene_network.client[8] 	avg_time[8] 	0.009691889613
scalar abilene_network.client[9] 	hdistance[9] 	2.2761382799325
scalar abilene_network.client[9] 	downloads[9] 	11860
scalar abilene_network.client[9] 	avg_time[9] 	0.013733720375
scalar abilene_network.client[10] 	hdistance[10] 	2.3890001669171
scalar abilene_network.client[10] 	downloads[10] 	11982
scalar abilene_network.client[10] 	avg_time[10] 	0.012598198422
