version 2
run General-209-20160901-00:56:56-8710
attr a 0.9
attr cd tfc
attr configname General
attr cr lru
attr datetime 20160901-00:56:56
attr experiment General
attr fsize 1
attr inifile hw5115/scenario_Y/omnetp.ini
attr iterationvars "$name=tree_4_3, $un=03, $rep=10, $cd=tfc, $cr=lru, $fsize=1, $a=0.9, $sl=nrr, $ttl=1000, $variance=0.05"
attr iterationvars2 "$name=tree_4_3, $un=03, $rep=10, $cd=tfc, $cr=lru, $fsize=1, $a=0.9, $sl=nrr, $ttl=1000, $variance=0.05, $repetition=0"
attr measurement "$name=tree_4_3, $un=03, $rep=10, $cd=tfc, $cr=lru, $fsize=1, $a=0.9, $sl=nrr, $ttl=1000, $variance=0.05"
attr name tree_4_3
attr network networks.${name}_u${un}_r${rep}_network
attr processid 8710
attr rep 10
attr repetition 0
attr replication #0
attr resultdir results
attr runnumber 209
attr seedset 10
attr sl nrr
attr ttl 1000
attr un 03
attr variance 0.05

scalar . 	a 	0.9
scalar . 	fsize 	1
scalar . 	rep 	10
scalar . 	ttl 	1000
scalar . 	un 	03
scalar . 	variance 	0.05
scalar tree_4_3_u03_r10_network.content_distribution 	repo-0 	0
scalar tree_4_3_u03_r10_network.content_distribution 	client-0 	13
scalar tree_4_3_u03_r10_network.content_distribution 	client-1 	14
scalar tree_4_3_u03_r10_network.content_distribution 	client-2 	15
scalar tree_4_3_u03_r10_network.content_distribution 	client-3 	16
scalar tree_4_3_u03_r10_network.content_distribution 	client-4 	17
scalar tree_4_3_u03_r10_network.content_distribution 	client-5 	18
scalar tree_4_3_u03_r10_network.content_distribution 	client-6 	19
scalar tree_4_3_u03_r10_network.content_distribution 	client-7 	20
scalar tree_4_3_u03_r10_network.content_distribution 	client-8 	21
scalar tree_4_3_u03_r10_network.content_distribution 	client-9 	22
scalar tree_4_3_u03_r10_network.content_distribution 	client-10 	23
scalar tree_4_3_u03_r10_network.content_distribution 	client-11 	24
scalar tree_4_3_u03_r10_network.content_distribution 	client-12 	25
scalar tree_4_3_u03_r10_network.content_distribution 	client-13 	26
scalar tree_4_3_u03_r10_network.content_distribution 	client-14 	27
scalar tree_4_3_u03_r10_network.content_distribution 	client-15 	28
scalar tree_4_3_u03_r10_network.content_distribution 	client-16 	29
scalar tree_4_3_u03_r10_network.content_distribution 	client-17 	30
scalar tree_4_3_u03_r10_network.content_distribution 	client-18 	31
scalar tree_4_3_u03_r10_network.content_distribution 	client-19 	32
scalar tree_4_3_u03_r10_network.content_distribution 	client-20 	33
scalar tree_4_3_u03_r10_network.content_distribution 	client-21 	34
scalar tree_4_3_u03_r10_network.content_distribution 	client-22 	35
scalar tree_4_3_u03_r10_network.content_distribution 	client-23 	36
scalar tree_4_3_u03_r10_network.content_distribution 	client-24 	37
scalar tree_4_3_u03_r10_network.content_distribution 	client-25 	38
scalar tree_4_3_u03_r10_network.content_distribution 	client-26 	39
scalar tree_4_3_u03_r10_network.content_distribution 	repo-0_card 	100000
scalar tree_4_3_u03_r10_network.content_distribution 	repo-0_price 	0
scalar tree_4_3_u03_r10_network.statistics 	stabilization_time 	3097.1
scalar tree_4_3_u03_r10_network.statistics 	p_hit 	0.22219932584888
scalar tree_4_3_u03_r10_network.statistics 	interests 	24509
scalar tree_4_3_u03_r10_network.statistics 	data 	16429.875
scalar tree_4_3_u03_r10_network.statistics 	hdistance 	2.6402232033612
scalar tree_4_3_u03_r10_network.statistics 	avg_time 	0.004067282549
scalar tree_4_3_u03_r10_network.statistics 	downloads 	323165
scalar tree_4_3_u03_r10_network.statistics 	total_cost 	0
scalar tree_4_3_u03_r10_network.statistics 	total_replicas 	100000
scalar tree_4_3_u03_r10_network.statistics 	inner_hit 	0.39345535562329
scalar tree_4_3_u03_r10_network.node[0].core_layer 	interests[0] 	199654
scalar tree_4_3_u03_r10_network.node[0].core_layer 	repo_load[0] 	196014
scalar tree_4_3_u03_r10_network.node[0].core_layer 	data[0] 	0
scalar tree_4_3_u03_r10_network.node[0].core_layer 	repo_int[0] 	196014
scalar tree_4_3_u03_r10_network.node[0].content_store 	p_hit[0] 	0.018231540565178
scalar tree_4_3_u03_r10_network.node[0].content_store 	hits[0] 	3640
scalar tree_4_3_u03_r10_network.node[0].content_store 	misses[0] 	196014
scalar tree_4_3_u03_r10_network.node[0].content_store 	decision_yes[0] 	1079
scalar tree_4_3_u03_r10_network.node[0].content_store 	decision_no[0] 	194935
scalar tree_4_3_u03_r10_network.node[0].content_store 	decision_ratio[0] 	0.0055047088473272
scalar tree_4_3_u03_r10_network.node[1].core_layer 	interests[1] 	69847
scalar tree_4_3_u03_r10_network.node[1].core_layer 	data[1] 	67787
scalar tree_4_3_u03_r10_network.node[1].content_store 	p_hit[1] 	0.029478717768838
scalar tree_4_3_u03_r10_network.node[1].content_store 	hits[1] 	2059
scalar tree_4_3_u03_r10_network.node[1].content_store 	misses[1] 	67788
scalar tree_4_3_u03_r10_network.node[1].content_store 	decision_yes[1] 	66
scalar tree_4_3_u03_r10_network.node[1].content_store 	decision_no[1] 	67721
scalar tree_4_3_u03_r10_network.node[1].content_store 	decision_ratio[1] 	0.00097363801318837
scalar tree_4_3_u03_r10_network.node[2].core_layer 	interests[2] 	101326
scalar tree_4_3_u03_r10_network.node[2].core_layer 	data[2] 	98416
scalar tree_4_3_u03_r10_network.node[2].content_store 	p_hit[2] 	0.028709314489864
scalar tree_4_3_u03_r10_network.node[2].content_store 	hits[2] 	2909
scalar tree_4_3_u03_r10_network.node[2].content_store 	misses[2] 	98417
scalar tree_4_3_u03_r10_network.node[2].content_store 	decision_yes[2] 	136
scalar tree_4_3_u03_r10_network.node[2].content_store 	decision_no[2] 	98280
scalar tree_4_3_u03_r10_network.node[2].content_store 	decision_ratio[2] 	0.0013818891237197
scalar tree_4_3_u03_r10_network.node[3].core_layer 	interests[3] 	40768
scalar tree_4_3_u03_r10_network.node[3].core_layer 	data[3] 	38625
scalar tree_4_3_u03_r10_network.node[3].content_store 	p_hit[3] 	0.052565737833595
scalar tree_4_3_u03_r10_network.node[3].content_store 	hits[3] 	2143
scalar tree_4_3_u03_r10_network.node[3].content_store 	misses[3] 	38625
scalar tree_4_3_u03_r10_network.node[3].content_store 	decision_yes[3] 	65
scalar tree_4_3_u03_r10_network.node[3].content_store 	decision_no[3] 	38560
scalar tree_4_3_u03_r10_network.node[3].content_store 	decision_ratio[3] 	0.0016828478964401
scalar tree_4_3_u03_r10_network.node[4].core_layer 	interests[4] 	33563
scalar tree_4_3_u03_r10_network.node[4].core_layer 	data[4] 	31697
scalar tree_4_3_u03_r10_network.node[4].content_store 	p_hit[4] 	0.05556714238894
scalar tree_4_3_u03_r10_network.node[4].content_store 	hits[4] 	1865
scalar tree_4_3_u03_r10_network.node[4].content_store 	misses[4] 	31698
scalar tree_4_3_u03_r10_network.node[4].content_store 	decision_yes[4] 	39
scalar tree_4_3_u03_r10_network.node[4].content_store 	decision_no[4] 	31658
scalar tree_4_3_u03_r10_network.node[4].content_store 	decision_ratio[4] 	0.0012304003533457
scalar tree_4_3_u03_r10_network.node[5].core_layer 	interests[5] 	34616
scalar tree_4_3_u03_r10_network.node[5].core_layer 	data[5] 	32266
scalar tree_4_3_u03_r10_network.node[5].content_store 	p_hit[5] 	0.067858793621447
scalar tree_4_3_u03_r10_network.node[5].content_store 	hits[5] 	2349
scalar tree_4_3_u03_r10_network.node[5].content_store 	misses[5] 	32267
scalar tree_4_3_u03_r10_network.node[5].content_store 	decision_yes[5] 	91
scalar tree_4_3_u03_r10_network.node[5].content_store 	decision_no[5] 	32175
scalar tree_4_3_u03_r10_network.node[5].content_store 	decision_ratio[5] 	0.0028203062046737
scalar tree_4_3_u03_r10_network.node[6].core_layer 	interests[6] 	10277
scalar tree_4_3_u03_r10_network.node[6].core_layer 	data[6] 	8279
scalar tree_4_3_u03_r10_network.node[6].content_store 	p_hit[6] 	0.19441471246473
scalar tree_4_3_u03_r10_network.node[6].content_store 	hits[6] 	1998
scalar tree_4_3_u03_r10_network.node[6].content_store 	misses[6] 	8279
scalar tree_4_3_u03_r10_network.node[6].content_store 	decision_yes[6] 	42
scalar tree_4_3_u03_r10_network.node[6].content_store 	decision_no[6] 	8237
scalar tree_4_3_u03_r10_network.node[6].content_store 	decision_ratio[6] 	0.0050730764585095
scalar tree_4_3_u03_r10_network.node[7].core_layer 	interests[7] 	25824
scalar tree_4_3_u03_r10_network.node[7].core_layer 	data[7] 	23923
scalar tree_4_3_u03_r10_network.node[7].content_store 	p_hit[7] 	0.073652416356877
scalar tree_4_3_u03_r10_network.node[7].content_store 	hits[7] 	1902
scalar tree_4_3_u03_r10_network.node[7].content_store 	misses[7] 	23922
scalar tree_4_3_u03_r10_network.node[7].content_store 	decision_yes[7] 	46
scalar tree_4_3_u03_r10_network.node[7].content_store 	decision_no[7] 	23877
scalar tree_4_3_u03_r10_network.node[7].content_store 	decision_ratio[7] 	0.0019228357647452
scalar tree_4_3_u03_r10_network.node[8].core_layer 	interests[8] 	27016
scalar tree_4_3_u03_r10_network.node[8].core_layer 	data[8] 	24738
scalar tree_4_3_u03_r10_network.node[8].content_store 	p_hit[8] 	0.084320402724312
scalar tree_4_3_u03_r10_network.node[8].content_store 	hits[8] 	2278
scalar tree_4_3_u03_r10_network.node[8].content_store 	misses[8] 	24738
scalar tree_4_3_u03_r10_network.node[8].content_store 	decision_yes[8] 	87
scalar tree_4_3_u03_r10_network.node[8].content_store 	decision_no[8] 	24651
scalar tree_4_3_u03_r10_network.node[8].content_store 	decision_ratio[8] 	0.0035168566577735
scalar tree_4_3_u03_r10_network.node[9].core_layer 	interests[9] 	26947
scalar tree_4_3_u03_r10_network.node[9].core_layer 	data[9] 	24778
scalar tree_4_3_u03_r10_network.node[9].content_store 	p_hit[9] 	0.080491334842469
scalar tree_4_3_u03_r10_network.node[9].content_store 	hits[9] 	2169
scalar tree_4_3_u03_r10_network.node[9].content_store 	misses[9] 	24778
scalar tree_4_3_u03_r10_network.node[9].content_store 	decision_yes[9] 	90
scalar tree_4_3_u03_r10_network.node[9].content_store 	decision_no[9] 	24688
scalar tree_4_3_u03_r10_network.node[9].content_store 	decision_ratio[9] 	0.0036322544192429
scalar tree_4_3_u03_r10_network.node[10].core_layer 	interests[10] 	18380
scalar tree_4_3_u03_r10_network.node[10].core_layer 	data[10] 	16757
scalar tree_4_3_u03_r10_network.node[10].content_store 	p_hit[10] 	0.088248095756257
scalar tree_4_3_u03_r10_network.node[10].content_store 	hits[10] 	1622
scalar tree_4_3_u03_r10_network.node[10].content_store 	misses[10] 	16758
scalar tree_4_3_u03_r10_network.node[10].content_store 	decision_yes[10] 	71
scalar tree_4_3_u03_r10_network.node[10].content_store 	decision_no[10] 	16686
scalar tree_4_3_u03_r10_network.node[10].content_store 	decision_ratio[10] 	0.0042370352688429
scalar tree_4_3_u03_r10_network.node[11].core_layer 	interests[11] 	35597
scalar tree_4_3_u03_r10_network.node[11].core_layer 	data[11] 	32558
scalar tree_4_3_u03_r10_network.node[11].content_store 	p_hit[11] 	0.085372362839565
scalar tree_4_3_u03_r10_network.node[11].content_store 	hits[11] 	3039
scalar tree_4_3_u03_r10_network.node[11].content_store 	misses[11] 	32558
scalar tree_4_3_u03_r10_network.node[11].content_store 	decision_yes[11] 	98
scalar tree_4_3_u03_r10_network.node[11].content_store 	decision_no[11] 	32460
scalar tree_4_3_u03_r10_network.node[11].content_store 	decision_ratio[11] 	0.0030100129000553
scalar tree_4_3_u03_r10_network.node[12].core_layer 	interests[12] 	25969
scalar tree_4_3_u03_r10_network.node[12].core_layer 	data[12] 	24355
scalar tree_4_3_u03_r10_network.node[12].content_store 	p_hit[12] 	0.062112518772382
scalar tree_4_3_u03_r10_network.node[12].content_store 	hits[12] 	1613
scalar tree_4_3_u03_r10_network.node[12].content_store 	misses[12] 	24356
scalar tree_4_3_u03_r10_network.node[12].content_store 	decision_yes[12] 	59
scalar tree_4_3_u03_r10_network.node[12].content_store 	decision_no[12] 	24296
scalar tree_4_3_u03_r10_network.node[12].content_store 	decision_ratio[12] 	0.0024225005132416
scalar tree_4_3_u03_r10_network.node[13].core_layer 	interests[13] 	12113
scalar tree_4_3_u03_r10_network.node[13].core_layer 	data[13] 	8603
scalar tree_4_3_u03_r10_network.node[13].content_store 	p_hit[13] 	0.28977132006935
scalar tree_4_3_u03_r10_network.node[13].content_store 	hits[13] 	3510
scalar tree_4_3_u03_r10_network.node[13].content_store 	misses[13] 	8603
scalar tree_4_3_u03_r10_network.node[13].content_store 	decision_yes[13] 	16
scalar tree_4_3_u03_r10_network.node[13].content_store 	decision_no[13] 	8587
scalar tree_4_3_u03_r10_network.node[13].content_store 	decision_ratio[13] 	0.0018598163431361
scalar tree_4_3_u03_r10_network.node[14].core_layer 	interests[14] 	12460
scalar tree_4_3_u03_r10_network.node[14].core_layer 	data[14] 	8694
scalar tree_4_3_u03_r10_network.node[14].content_store 	p_hit[14] 	0.30216693418941
scalar tree_4_3_u03_r10_network.node[14].content_store 	hits[14] 	3765
scalar tree_4_3_u03_r10_network.node[14].content_store 	misses[14] 	8695
scalar tree_4_3_u03_r10_network.node[14].content_store 	decision_yes[14] 	42
scalar tree_4_3_u03_r10_network.node[14].content_store 	decision_no[14] 	8652
scalar tree_4_3_u03_r10_network.node[14].content_store 	decision_ratio[14] 	0.0048309178743961
scalar tree_4_3_u03_r10_network.node[15].core_layer 	interests[15] 	12358
scalar tree_4_3_u03_r10_network.node[15].core_layer 	data[15] 	8793
scalar tree_4_3_u03_r10_network.node[15].content_store 	p_hit[15] 	0.28847709985435
scalar tree_4_3_u03_r10_network.node[15].content_store 	hits[15] 	3565
scalar tree_4_3_u03_r10_network.node[15].content_store 	misses[15] 	8793
scalar tree_4_3_u03_r10_network.node[15].content_store 	decision_yes[15] 	47
scalar tree_4_3_u03_r10_network.node[15].content_store 	decision_no[15] 	8746
scalar tree_4_3_u03_r10_network.node[15].content_store 	decision_ratio[15] 	0.0053451609234618
scalar tree_4_3_u03_r10_network.node[16].core_layer 	interests[16] 	12126
scalar tree_4_3_u03_r10_network.node[16].core_layer 	data[16] 	8474
scalar tree_4_3_u03_r10_network.node[16].content_store 	p_hit[16] 	0.30117103744021
scalar tree_4_3_u03_r10_network.node[16].content_store 	hits[16] 	3652
scalar tree_4_3_u03_r10_network.node[16].content_store 	misses[16] 	8474
scalar tree_4_3_u03_r10_network.node[16].content_store 	decision_yes[16] 	27
scalar tree_4_3_u03_r10_network.node[16].content_store 	decision_no[16] 	8447
scalar tree_4_3_u03_r10_network.node[16].content_store 	decision_ratio[16] 	0.0031862166627331
scalar tree_4_3_u03_r10_network.node[17].core_layer 	interests[17] 	12158
scalar tree_4_3_u03_r10_network.node[17].core_layer 	data[17] 	8529
scalar tree_4_3_u03_r10_network.node[17].content_store 	p_hit[17] 	0.29848659318967
scalar tree_4_3_u03_r10_network.node[17].content_store 	hits[17] 	3629
scalar tree_4_3_u03_r10_network.node[17].content_store 	misses[17] 	8529
scalar tree_4_3_u03_r10_network.node[17].content_store 	decision_yes[17] 	29
scalar tree_4_3_u03_r10_network.node[17].content_store 	decision_no[17] 	8500
scalar tree_4_3_u03_r10_network.node[17].content_store 	decision_ratio[17] 	0.0034001641458553
scalar tree_4_3_u03_r10_network.node[18].core_layer 	interests[18] 	12091
scalar tree_4_3_u03_r10_network.node[18].core_layer 	data[18] 	8420
scalar tree_4_3_u03_r10_network.node[18].content_store 	p_hit[18] 	0.30361425853941
scalar tree_4_3_u03_r10_network.node[18].content_store 	hits[18] 	3671
scalar tree_4_3_u03_r10_network.node[18].content_store 	misses[18] 	8420
scalar tree_4_3_u03_r10_network.node[18].content_store 	decision_yes[18] 	25
scalar tree_4_3_u03_r10_network.node[18].content_store 	decision_no[18] 	8395
scalar tree_4_3_u03_r10_network.node[18].content_store 	decision_ratio[18] 	0.0029691211401425
scalar tree_4_3_u03_r10_network.node[19].core_layer 	interests[19] 	12131
scalar tree_4_3_u03_r10_network.node[19].core_layer 	data[19] 	8611
scalar tree_4_3_u03_r10_network.node[19].content_store 	p_hit[19] 	0.29024812463935
scalar tree_4_3_u03_r10_network.node[19].content_store 	hits[19] 	3521
scalar tree_4_3_u03_r10_network.node[19].content_store 	misses[19] 	8610
scalar tree_4_3_u03_r10_network.node[19].content_store 	decision_yes[19] 	47
scalar tree_4_3_u03_r10_network.node[19].content_store 	decision_no[19] 	8564
scalar tree_4_3_u03_r10_network.node[19].content_store 	decision_ratio[19] 	0.0054581349436767
scalar tree_4_3_u03_r10_network.node[20].core_layer 	interests[20] 	12348
scalar tree_4_3_u03_r10_network.node[20].core_layer 	data[20] 	8722
scalar tree_4_3_u03_r10_network.node[20].content_store 	p_hit[20] 	0.29365079365079
scalar tree_4_3_u03_r10_network.node[20].content_store 	hits[20] 	3626
scalar tree_4_3_u03_r10_network.node[20].content_store 	misses[20] 	8722
scalar tree_4_3_u03_r10_network.node[20].content_store 	decision_yes[20] 	49
scalar tree_4_3_u03_r10_network.node[20].content_store 	decision_no[20] 	8673
scalar tree_4_3_u03_r10_network.node[20].content_store 	decision_ratio[20] 	0.0056179775280899
scalar tree_4_3_u03_r10_network.node[21].core_layer 	interests[21] 	12050
scalar tree_4_3_u03_r10_network.node[21].core_layer 	data[21] 	8529
scalar tree_4_3_u03_r10_network.node[21].content_store 	p_hit[21] 	0.29219917012448
scalar tree_4_3_u03_r10_network.node[21].content_store 	hits[21] 	3521
scalar tree_4_3_u03_r10_network.node[21].content_store 	misses[21] 	8529
scalar tree_4_3_u03_r10_network.node[21].content_store 	decision_yes[21] 	30
scalar tree_4_3_u03_r10_network.node[21].content_store 	decision_no[21] 	8499
scalar tree_4_3_u03_r10_network.node[21].content_store 	decision_ratio[21] 	0.0035174111853676
scalar tree_4_3_u03_r10_network.node[22].core_layer 	interests[22] 	12084
scalar tree_4_3_u03_r10_network.node[22].core_layer 	data[22] 	8562
scalar tree_4_3_u03_r10_network.node[22].content_store 	p_hit[22] 	0.29145978152929
scalar tree_4_3_u03_r10_network.node[22].content_store 	hits[22] 	3522
scalar tree_4_3_u03_r10_network.node[22].content_store 	misses[22] 	8562
scalar tree_4_3_u03_r10_network.node[22].content_store 	decision_yes[22] 	26
scalar tree_4_3_u03_r10_network.node[22].content_store 	decision_no[22] 	8536
scalar tree_4_3_u03_r10_network.node[22].content_store 	decision_ratio[22] 	0.0030366736743751
scalar tree_4_3_u03_r10_network.node[23].core_layer 	interests[23] 	12569
scalar tree_4_3_u03_r10_network.node[23].core_layer 	data[23] 	8754
scalar tree_4_3_u03_r10_network.node[23].content_store 	p_hit[23] 	0.30352454451428
scalar tree_4_3_u03_r10_network.node[23].content_store 	hits[23] 	3815
scalar tree_4_3_u03_r10_network.node[23].content_store 	misses[23] 	8754
scalar tree_4_3_u03_r10_network.node[23].content_store 	decision_yes[23] 	37
scalar tree_4_3_u03_r10_network.node[23].content_store 	decision_no[23] 	8717
scalar tree_4_3_u03_r10_network.node[23].content_store 	decision_ratio[23] 	0.0042266392506283
scalar tree_4_3_u03_r10_network.node[24].core_layer 	interests[24] 	12643
scalar tree_4_3_u03_r10_network.node[24].core_layer 	data[24] 	8878
scalar tree_4_3_u03_r10_network.node[24].content_store 	p_hit[24] 	0.29787234042553
scalar tree_4_3_u03_r10_network.node[24].content_store 	hits[24] 	3766
scalar tree_4_3_u03_r10_network.node[24].content_store 	misses[24] 	8877
scalar tree_4_3_u03_r10_network.node[24].content_store 	decision_yes[24] 	42
scalar tree_4_3_u03_r10_network.node[24].content_store 	decision_no[24] 	8836
scalar tree_4_3_u03_r10_network.node[24].content_store 	decision_ratio[24] 	0.0047307952241496
scalar tree_4_3_u03_r10_network.node[25].core_layer 	interests[25] 	12045
scalar tree_4_3_u03_r10_network.node[25].core_layer 	data[25] 	8598
scalar tree_4_3_u03_r10_network.node[25].content_store 	p_hit[25] 	0.28617683686177
scalar tree_4_3_u03_r10_network.node[25].content_store 	hits[25] 	3447
scalar tree_4_3_u03_r10_network.node[25].content_store 	misses[25] 	8598
scalar tree_4_3_u03_r10_network.node[25].content_store 	decision_yes[25] 	24
scalar tree_4_3_u03_r10_network.node[25].content_store 	decision_no[25] 	8574
scalar tree_4_3_u03_r10_network.node[25].content_store 	decision_ratio[25] 	0.002791346824843
scalar tree_4_3_u03_r10_network.node[26].core_layer 	interests[26] 	12226
scalar tree_4_3_u03_r10_network.node[26].core_layer 	data[26] 	8639
scalar tree_4_3_u03_r10_network.node[26].content_store 	p_hit[26] 	0.2933911336496
scalar tree_4_3_u03_r10_network.node[26].content_store 	hits[26] 	3587
scalar tree_4_3_u03_r10_network.node[26].content_store 	misses[26] 	8639
scalar tree_4_3_u03_r10_network.node[26].content_store 	decision_yes[26] 	25
scalar tree_4_3_u03_r10_network.node[26].content_store 	decision_no[26] 	8614
scalar tree_4_3_u03_r10_network.node[26].content_store 	decision_ratio[26] 	0.002893853455261
scalar tree_4_3_u03_r10_network.node[27].core_layer 	interests[27] 	12080
scalar tree_4_3_u03_r10_network.node[27].core_layer 	data[27] 	8629
scalar tree_4_3_u03_r10_network.node[27].content_store 	p_hit[27] 	0.28559602649007
scalar tree_4_3_u03_r10_network.node[27].content_store 	hits[27] 	3450
scalar tree_4_3_u03_r10_network.node[27].content_store 	misses[27] 	8630
scalar tree_4_3_u03_r10_network.node[27].content_store 	decision_yes[27] 	29
scalar tree_4_3_u03_r10_network.node[27].content_store 	decision_no[27] 	8600
scalar tree_4_3_u03_r10_network.node[27].content_store 	decision_ratio[27] 	0.003360760227141
scalar tree_4_3_u03_r10_network.node[28].core_layer 	interests[28] 	12297
scalar tree_4_3_u03_r10_network.node[28].core_layer 	data[28] 	8729
scalar tree_4_3_u03_r10_network.node[28].content_store 	p_hit[28] 	0.29015206961047
scalar tree_4_3_u03_r10_network.node[28].content_store 	hits[28] 	3568
scalar tree_4_3_u03_r10_network.node[28].content_store 	misses[28] 	8729
scalar tree_4_3_u03_r10_network.node[28].content_store 	decision_yes[28] 	23
scalar tree_4_3_u03_r10_network.node[28].content_store 	decision_no[28] 	8706
scalar tree_4_3_u03_r10_network.node[28].content_store 	decision_ratio[28] 	0.0026348951769962
scalar tree_4_3_u03_r10_network.node[29].core_layer 	interests[29] 	12109
scalar tree_4_3_u03_r10_network.node[29].core_layer 	data[29] 	8554
scalar tree_4_3_u03_r10_network.node[29].content_store 	p_hit[29] 	0.2935832851598
scalar tree_4_3_u03_r10_network.node[29].content_store 	hits[29] 	3555
scalar tree_4_3_u03_r10_network.node[29].content_store 	misses[29] 	8554
scalar tree_4_3_u03_r10_network.node[29].content_store 	decision_yes[29] 	33
scalar tree_4_3_u03_r10_network.node[29].content_store 	decision_no[29] 	8521
scalar tree_4_3_u03_r10_network.node[29].content_store 	decision_ratio[29] 	0.0038578442833762
scalar tree_4_3_u03_r10_network.node[30].core_layer 	interests[30] 	12191
scalar tree_4_3_u03_r10_network.node[30].core_layer 	data[30] 	8556
scalar tree_4_3_u03_r10_network.node[30].content_store 	p_hit[30] 	0.29817078172422
scalar tree_4_3_u03_r10_network.node[30].content_store 	hits[30] 	3635
scalar tree_4_3_u03_r10_network.node[30].content_store 	misses[30] 	8556
scalar tree_4_3_u03_r10_network.node[30].content_store 	decision_yes[30] 	27
scalar tree_4_3_u03_r10_network.node[30].content_store 	decision_no[30] 	8529
scalar tree_4_3_u03_r10_network.node[30].content_store 	decision_ratio[30] 	0.0031556802244039
scalar tree_4_3_u03_r10_network.node[31].core_layer 	interests[31] 	12144
scalar tree_4_3_u03_r10_network.node[31].core_layer 	data[31] 	8598
scalar tree_4_3_u03_r10_network.node[31].content_store 	p_hit[31] 	0.29199604743083
scalar tree_4_3_u03_r10_network.node[31].content_store 	hits[31] 	3546
scalar tree_4_3_u03_r10_network.node[31].content_store 	misses[31] 	8598
scalar tree_4_3_u03_r10_network.node[31].content_store 	decision_yes[31] 	28
scalar tree_4_3_u03_r10_network.node[31].content_store 	decision_no[31] 	8570
scalar tree_4_3_u03_r10_network.node[31].content_store 	decision_ratio[31] 	0.0032565712956502
scalar tree_4_3_u03_r10_network.node[32].core_layer 	interests[32] 	12690
scalar tree_4_3_u03_r10_network.node[32].core_layer 	data[32] 	8760
scalar tree_4_3_u03_r10_network.node[32].content_store 	p_hit[32] 	0.3096926713948
scalar tree_4_3_u03_r10_network.node[32].content_store 	hits[32] 	3930
scalar tree_4_3_u03_r10_network.node[32].content_store 	misses[32] 	8760
scalar tree_4_3_u03_r10_network.node[32].content_store 	decision_yes[32] 	45
scalar tree_4_3_u03_r10_network.node[32].content_store 	decision_no[32] 	8715
scalar tree_4_3_u03_r10_network.node[32].content_store 	decision_ratio[32] 	0.0051369863013699
scalar tree_4_3_u03_r10_network.node[33].core_layer 	interests[33] 	12371
scalar tree_4_3_u03_r10_network.node[33].core_layer 	data[33] 	8745
scalar tree_4_3_u03_r10_network.node[33].content_store 	p_hit[33] 	0.29310484196912
scalar tree_4_3_u03_r10_network.node[33].content_store 	hits[33] 	3626
scalar tree_4_3_u03_r10_network.node[33].content_store 	misses[33] 	8745
scalar tree_4_3_u03_r10_network.node[33].content_store 	decision_yes[33] 	23
scalar tree_4_3_u03_r10_network.node[33].content_store 	decision_no[33] 	8722
scalar tree_4_3_u03_r10_network.node[33].content_store 	decision_ratio[33] 	0.0026300743281875
scalar tree_4_3_u03_r10_network.node[34].core_layer 	interests[34] 	12254
scalar tree_4_3_u03_r10_network.node[34].core_layer 	data[34] 	8599
scalar tree_4_3_u03_r10_network.node[34].content_store 	p_hit[34] 	0.29826995266852
scalar tree_4_3_u03_r10_network.node[34].content_store 	hits[34] 	3655
scalar tree_4_3_u03_r10_network.node[34].content_store 	misses[34] 	8599
scalar tree_4_3_u03_r10_network.node[34].content_store 	decision_yes[34] 	22
scalar tree_4_3_u03_r10_network.node[34].content_store 	decision_no[34] 	8577
scalar tree_4_3_u03_r10_network.node[34].content_store 	decision_ratio[34] 	0.0025584370275613
scalar tree_4_3_u03_r10_network.node[35].core_layer 	interests[35] 	12321
scalar tree_4_3_u03_r10_network.node[35].core_layer 	data[35] 	8655
scalar tree_4_3_u03_r10_network.node[35].content_store 	p_hit[35] 	0.29745962178395
scalar tree_4_3_u03_r10_network.node[35].content_store 	hits[35] 	3665
scalar tree_4_3_u03_r10_network.node[35].content_store 	misses[35] 	8656
scalar tree_4_3_u03_r10_network.node[35].content_store 	decision_yes[35] 	28
scalar tree_4_3_u03_r10_network.node[35].content_store 	decision_no[35] 	8627
scalar tree_4_3_u03_r10_network.node[35].content_store 	decision_ratio[35] 	0.0032351242056615
scalar tree_4_3_u03_r10_network.node[36].core_layer 	interests[36] 	12322
scalar tree_4_3_u03_r10_network.node[36].core_layer 	data[36] 	8659
scalar tree_4_3_u03_r10_network.node[36].content_store 	p_hit[36] 	0.29727316993994
scalar tree_4_3_u03_r10_network.node[36].content_store 	hits[36] 	3663
scalar tree_4_3_u03_r10_network.node[36].content_store 	misses[36] 	8659
scalar tree_4_3_u03_r10_network.node[36].content_store 	decision_yes[36] 	23
scalar tree_4_3_u03_r10_network.node[36].content_store 	decision_no[36] 	8636
scalar tree_4_3_u03_r10_network.node[36].content_store 	decision_ratio[36] 	0.0026561958655734
scalar tree_4_3_u03_r10_network.node[37].core_layer 	interests[37] 	12070
scalar tree_4_3_u03_r10_network.node[37].core_layer 	data[37] 	8539
scalar tree_4_3_u03_r10_network.node[37].content_store 	p_hit[37] 	0.29254349627175
scalar tree_4_3_u03_r10_network.node[37].content_store 	hits[37] 	3531
scalar tree_4_3_u03_r10_network.node[37].content_store 	misses[37] 	8539
scalar tree_4_3_u03_r10_network.node[37].content_store 	decision_yes[37] 	35
scalar tree_4_3_u03_r10_network.node[37].content_store 	decision_no[37] 	8504
scalar tree_4_3_u03_r10_network.node[37].content_store 	decision_ratio[37] 	0.004098840613655
scalar tree_4_3_u03_r10_network.node[38].core_layer 	interests[38] 	12286
scalar tree_4_3_u03_r10_network.node[38].core_layer 	data[38] 	8688
scalar tree_4_3_u03_r10_network.node[38].content_store 	p_hit[38] 	0.29285365456617
scalar tree_4_3_u03_r10_network.node[38].content_store 	hits[38] 	3598
scalar tree_4_3_u03_r10_network.node[38].content_store 	misses[38] 	8688
scalar tree_4_3_u03_r10_network.node[38].content_store 	decision_yes[38] 	25
scalar tree_4_3_u03_r10_network.node[38].content_store 	decision_no[38] 	8663
scalar tree_4_3_u03_r10_network.node[38].content_store 	decision_ratio[38] 	0.002877532228361
scalar tree_4_3_u03_r10_network.node[39].core_layer 	interests[39] 	12039
scalar tree_4_3_u03_r10_network.node[39].core_layer 	data[39] 	8499
scalar tree_4_3_u03_r10_network.node[39].content_store 	p_hit[39] 	0.29404435584351
scalar tree_4_3_u03_r10_network.node[39].content_store 	hits[39] 	3540
scalar tree_4_3_u03_r10_network.node[39].content_store 	misses[39] 	8499
scalar tree_4_3_u03_r10_network.node[39].content_store 	decision_yes[39] 	24
scalar tree_4_3_u03_r10_network.node[39].content_store 	decision_no[39] 	8475
scalar tree_4_3_u03_r10_network.node[39].content_store 	decision_ratio[39] 	0.0028238616307801
scalar tree_4_3_u03_r10_network.client[13] 	hdistance[13] 	2.6583778371162
scalar tree_4_3_u03_r10_network.client[13] 	downloads[13] 	11984
scalar tree_4_3_u03_r10_network.client[13] 	avg_time[13] 	0.004090617823
scalar tree_4_3_u03_r10_network.client[14] 	hdistance[14] 	2.6336583725622
scalar tree_4_3_u03_r10_network.client[14] 	downloads[14] 	11896
scalar tree_4_3_u03_r10_network.client[14] 	avg_time[14] 	0.004045222285
scalar tree_4_3_u03_r10_network.client[15] 	hdistance[15] 	2.6399569108386
scalar tree_4_3_u03_r10_network.client[15] 	downloads[15] 	12068
scalar tree_4_3_u03_r10_network.client[15] 	avg_time[15] 	0.004047063608
scalar tree_4_3_u03_r10_network.client[16] 	hdistance[16] 	2.6239603461312
scalar tree_4_3_u03_r10_network.client[16] 	downloads[16] 	11903
scalar tree_4_3_u03_r10_network.client[16] 	avg_time[16] 	0.00403349924
scalar tree_4_3_u03_r10_network.client[17] 	hdistance[17] 	2.6377628259041
scalar tree_4_3_u03_r10_network.client[17] 	downloads[17] 	11890
scalar tree_4_3_u03_r10_network.client[17] 	avg_time[17] 	0.004058701817
scalar tree_4_3_u03_r10_network.client[18] 	hdistance[18] 	2.6109662770162
scalar tree_4_3_u03_r10_network.client[18] 	downloads[18] 	11891
scalar tree_4_3_u03_r10_network.client[18] 	avg_time[18] 	0.00401765739
scalar tree_4_3_u03_r10_network.client[19] 	hdistance[19] 	2.6242215115301
scalar tree_4_3_u03_r10_network.client[19] 	downloads[19] 	11882
scalar tree_4_3_u03_r10_network.client[19] 	avg_time[19] 	0.00402541365
scalar tree_4_3_u03_r10_network.client[20] 	hdistance[20] 	2.6451505016722
scalar tree_4_3_u03_r10_network.client[20] 	downloads[20] 	11960
scalar tree_4_3_u03_r10_network.client[20] 	avg_time[20] 	0.004060364898
scalar tree_4_3_u03_r10_network.client[21] 	hdistance[21] 	2.62666109486
scalar tree_4_3_u03_r10_network.client[21] 	downloads[21] 	11965
scalar tree_4_3_u03_r10_network.client[21] 	avg_time[21] 	0.004044627178
scalar tree_4_3_u03_r10_network.client[22] 	hdistance[22] 	2.6441697293685
scalar tree_4_3_u03_r10_network.client[22] 	downloads[22] 	11972
scalar tree_4_3_u03_r10_network.client[22] 	avg_time[22] 	0.004079682962
scalar tree_4_3_u03_r10_network.client[23] 	hdistance[23] 	2.6172737077906
scalar tree_4_3_u03_r10_network.client[23] 	downloads[23] 	12053
scalar tree_4_3_u03_r10_network.client[23] 	avg_time[23] 	0.004029699138
scalar tree_4_3_u03_r10_network.client[24] 	hdistance[24] 	2.6135618235487
scalar tree_4_3_u03_r10_network.client[24] 	downloads[24] 	12196
scalar tree_4_3_u03_r10_network.client[24] 	avg_time[24] 	0.004024923152
scalar tree_4_3_u03_r10_network.client[25] 	hdistance[25] 	2.6632653061225
scalar tree_4_3_u03_r10_network.client[25] 	downloads[25] 	11858
scalar tree_4_3_u03_r10_network.client[25] 	avg_time[25] 	0.004112663592
scalar tree_4_3_u03_r10_network.client[26] 	hdistance[26] 	2.649087728068
scalar tree_4_3_u03_r10_network.client[26] 	downloads[26] 	12003
scalar tree_4_3_u03_r10_network.client[26] 	avg_time[26] 	0.004090141132
scalar tree_4_3_u03_r10_network.client[27] 	hdistance[27] 	2.680252631579
scalar tree_4_3_u03_r10_network.client[27] 	downloads[27] 	11875
scalar tree_4_3_u03_r10_network.client[27] 	avg_time[27] 	0.004134227543
scalar tree_4_3_u03_r10_network.client[28] 	hdistance[28] 	2.6667219779308
scalar tree_4_3_u03_r10_network.client[28] 	downloads[28] 	12053
scalar tree_4_3_u03_r10_network.client[28] 	avg_time[28] 	0.004122787971
scalar tree_4_3_u03_r10_network.client[29] 	hdistance[29] 	2.6484125650932
scalar tree_4_3_u03_r10_network.client[29] 	downloads[29] 	11906
scalar tree_4_3_u03_r10_network.client[29] 	avg_time[29] 	0.004085164182
scalar tree_4_3_u03_r10_network.client[30] 	hdistance[30] 	2.6419071518193
scalar tree_4_3_u03_r10_network.client[30] 	downloads[30] 	11955
scalar tree_4_3_u03_r10_network.client[30] 	avg_time[30] 	0.004077154543
scalar tree_4_3_u03_r10_network.client[31] 	hdistance[31] 	2.6492312834225
scalar tree_4_3_u03_r10_network.client[31] 	downloads[31] 	11968
scalar tree_4_3_u03_r10_network.client[31] 	avg_time[31] 	0.004079709544
scalar tree_4_3_u03_r10_network.client[32] 	hdistance[32] 	2.6086666666667
scalar tree_4_3_u03_r10_network.client[32] 	downloads[32] 	12000
scalar tree_4_3_u03_r10_network.client[32] 	avg_time[32] 	0.004026663651
scalar tree_4_3_u03_r10_network.client[33] 	hdistance[33] 	2.6628327308577
scalar tree_4_3_u03_r10_network.client[33] 	downloads[33] 	12172
scalar tree_4_3_u03_r10_network.client[33] 	avg_time[33] 	0.004094656302
scalar tree_4_3_u03_r10_network.client[34] 	hdistance[34] 	2.6241627595445
scalar tree_4_3_u03_r10_network.client[34] 	downloads[34] 	11944
scalar tree_4_3_u03_r10_network.client[34] 	avg_time[34] 	0.00406078068
scalar tree_4_3_u03_r10_network.client[35] 	hdistance[35] 	2.6270324355874
scalar tree_4_3_u03_r10_network.client[35] 	downloads[35] 	11993
scalar tree_4_3_u03_r10_network.client[35] 	avg_time[35] 	0.004060391054
scalar tree_4_3_u03_r10_network.client[36] 	hdistance[36] 	2.628149507759
scalar tree_4_3_u03_r10_network.client[36] 	downloads[36] 	11986
scalar tree_4_3_u03_r10_network.client[36] 	avg_time[36] 	0.00406724211
scalar tree_4_3_u03_r10_network.client[37] 	hdistance[37] 	2.6712955122777
scalar tree_4_3_u03_r10_network.client[37] 	downloads[37] 	11810
scalar tree_4_3_u03_r10_network.client[37] 	avg_time[37] 	0.004106178245
scalar tree_4_3_u03_r10_network.client[38] 	hdistance[38] 	2.6452437917664
scalar tree_4_3_u03_r10_network.client[38] 	downloads[38] 	12121
scalar tree_4_3_u03_r10_network.client[38] 	avg_time[38] 	0.004071926718
scalar tree_4_3_u03_r10_network.client[39] 	hdistance[39] 	2.6440435039204
scalar tree_4_3_u03_r10_network.client[39] 	downloads[39] 	11861
scalar tree_4_3_u03_r10_network.client[39] 	avg_time[39] 	0.004069468433
