version 2
run General-206-20160901-00:50:57-8710
attr a 0.9
attr cd tfc
attr configname General
attr cr lru
attr datetime 20160901-00:50:57
attr experiment General
attr fsize 1
attr inifile hw5115/scenario_Y/omnetp.ini
attr iterationvars "$name=tree_4_3, $un=03, $rep=9, $cd=tfc, $cr=lru, $fsize=1, $a=0.9, $sl=nrr, $ttl=1000, $variance=0.05"
attr iterationvars2 "$name=tree_4_3, $un=03, $rep=9, $cd=tfc, $cr=lru, $fsize=1, $a=0.9, $sl=nrr, $ttl=1000, $variance=0.05, $repetition=0"
attr measurement "$name=tree_4_3, $un=03, $rep=9, $cd=tfc, $cr=lru, $fsize=1, $a=0.9, $sl=nrr, $ttl=1000, $variance=0.05"
attr name tree_4_3
attr network networks.${name}_u${un}_r${rep}_network
attr processid 8710
attr rep 9
attr repetition 0
attr replication #0
attr resultdir results
attr runnumber 206
attr seedset 9
attr sl nrr
attr ttl 1000
attr un 03
attr variance 0.05

scalar . 	a 	0.9
scalar . 	fsize 	1
scalar . 	rep 	9
scalar . 	ttl 	1000
scalar . 	un 	03
scalar . 	variance 	0.05
scalar tree_4_3_u03_r9_network.content_distribution 	repo-0 	0
scalar tree_4_3_u03_r9_network.content_distribution 	client-0 	13
scalar tree_4_3_u03_r9_network.content_distribution 	client-1 	14
scalar tree_4_3_u03_r9_network.content_distribution 	client-2 	15
scalar tree_4_3_u03_r9_network.content_distribution 	client-3 	16
scalar tree_4_3_u03_r9_network.content_distribution 	client-4 	17
scalar tree_4_3_u03_r9_network.content_distribution 	client-5 	18
scalar tree_4_3_u03_r9_network.content_distribution 	client-6 	19
scalar tree_4_3_u03_r9_network.content_distribution 	client-7 	20
scalar tree_4_3_u03_r9_network.content_distribution 	client-8 	21
scalar tree_4_3_u03_r9_network.content_distribution 	client-9 	22
scalar tree_4_3_u03_r9_network.content_distribution 	client-10 	23
scalar tree_4_3_u03_r9_network.content_distribution 	client-11 	24
scalar tree_4_3_u03_r9_network.content_distribution 	client-12 	25
scalar tree_4_3_u03_r9_network.content_distribution 	client-13 	26
scalar tree_4_3_u03_r9_network.content_distribution 	client-14 	27
scalar tree_4_3_u03_r9_network.content_distribution 	client-15 	28
scalar tree_4_3_u03_r9_network.content_distribution 	client-16 	29
scalar tree_4_3_u03_r9_network.content_distribution 	client-17 	30
scalar tree_4_3_u03_r9_network.content_distribution 	client-18 	31
scalar tree_4_3_u03_r9_network.content_distribution 	client-19 	32
scalar tree_4_3_u03_r9_network.content_distribution 	client-20 	33
scalar tree_4_3_u03_r9_network.content_distribution 	client-21 	34
scalar tree_4_3_u03_r9_network.content_distribution 	client-22 	35
scalar tree_4_3_u03_r9_network.content_distribution 	client-23 	36
scalar tree_4_3_u03_r9_network.content_distribution 	client-24 	37
scalar tree_4_3_u03_r9_network.content_distribution 	client-25 	38
scalar tree_4_3_u03_r9_network.content_distribution 	client-26 	39
scalar tree_4_3_u03_r9_network.content_distribution 	repo-0_card 	100000
scalar tree_4_3_u03_r9_network.content_distribution 	repo-0_price 	0
scalar tree_4_3_u03_r9_network.statistics 	stabilization_time 	1657.3
scalar tree_4_3_u03_r9_network.statistics 	p_hit 	0.22243571855921
scalar tree_4_3_u03_r9_network.statistics 	interests 	24493.3
scalar tree_4_3_u03_r9_network.statistics 	data 	16410.55
scalar tree_4_3_u03_r9_network.statistics 	hdistance 	2.6263059916343
scalar tree_4_3_u03_r9_network.statistics 	avg_time 	0.00406073377
scalar tree_4_3_u03_r9_network.statistics 	downloads 	323303
scalar tree_4_3_u03_r9_network.statistics 	total_cost 	0
scalar tree_4_3_u03_r9_network.statistics 	total_replicas 	100000
scalar tree_4_3_u03_r9_network.statistics 	inner_hit 	0.40406986634829
scalar tree_4_3_u03_r9_network.node[0].core_layer 	interests[0] 	196232
scalar tree_4_3_u03_r9_network.node[0].core_layer 	repo_load[0] 	192666
scalar tree_4_3_u03_r9_network.node[0].core_layer 	data[0] 	0
scalar tree_4_3_u03_r9_network.node[0].core_layer 	repo_int[0] 	192666
scalar tree_4_3_u03_r9_network.node[0].content_store 	p_hit[0] 	0.018172367401851
scalar tree_4_3_u03_r9_network.node[0].content_store 	hits[0] 	3566
scalar tree_4_3_u03_r9_network.node[0].content_store 	misses[0] 	192666
scalar tree_4_3_u03_r9_network.node[0].content_store 	decision_yes[0] 	997
scalar tree_4_3_u03_r9_network.node[0].content_store 	decision_no[0] 	191669
scalar tree_4_3_u03_r9_network.node[0].content_store 	decision_ratio[0] 	0.0051747583901674
scalar tree_4_3_u03_r9_network.node[1].core_layer 	interests[1] 	67741
scalar tree_4_3_u03_r9_network.node[1].core_layer 	data[1] 	65869
scalar tree_4_3_u03_r9_network.node[1].content_store 	p_hit[1] 	0.027634667335882
scalar tree_4_3_u03_r9_network.node[1].content_store 	hits[1] 	1872
scalar tree_4_3_u03_r9_network.node[1].content_store 	misses[1] 	65869
scalar tree_4_3_u03_r9_network.node[1].content_store 	decision_yes[1] 	65
scalar tree_4_3_u03_r9_network.node[1].content_store 	decision_no[1] 	65804
scalar tree_4_3_u03_r9_network.node[1].content_store 	decision_ratio[1] 	0.00098680714752008
scalar tree_4_3_u03_r9_network.node[2].core_layer 	interests[2] 	94206
scalar tree_4_3_u03_r9_network.node[2].core_layer 	data[2] 	90718
scalar tree_4_3_u03_r9_network.node[2].content_store 	p_hit[2] 	0.036993397448146
scalar tree_4_3_u03_r9_network.node[2].content_store 	hits[2] 	3485
scalar tree_4_3_u03_r9_network.node[2].content_store 	misses[2] 	90721
scalar tree_4_3_u03_r9_network.node[2].content_store 	decision_yes[2] 	132
scalar tree_4_3_u03_r9_network.node[2].content_store 	decision_no[2] 	90586
scalar tree_4_3_u03_r9_network.node[2].content_store 	decision_ratio[2] 	0.0014550585330364
scalar tree_4_3_u03_r9_network.node[3].core_layer 	interests[3] 	51183
scalar tree_4_3_u03_r9_network.node[3].core_layer 	data[3] 	47388
scalar tree_4_3_u03_r9_network.node[3].content_store 	p_hit[3] 	0.074145712443585
scalar tree_4_3_u03_r9_network.node[3].content_store 	hits[3] 	3795
scalar tree_4_3_u03_r9_network.node[3].content_store 	misses[3] 	47388
scalar tree_4_3_u03_r9_network.node[3].content_store 	decision_yes[3] 	162
scalar tree_4_3_u03_r9_network.node[3].content_store 	decision_no[3] 	47226
scalar tree_4_3_u03_r9_network.node[3].content_store 	decision_ratio[3] 	0.0034185869840466
scalar tree_4_3_u03_r9_network.node[4].core_layer 	interests[4] 	25020
scalar tree_4_3_u03_r9_network.node[4].core_layer 	data[4] 	23650
scalar tree_4_3_u03_r9_network.node[4].content_store 	p_hit[4] 	0.054756195043965
scalar tree_4_3_u03_r9_network.node[4].content_store 	hits[4] 	1370
scalar tree_4_3_u03_r9_network.node[4].content_store 	misses[4] 	23650
scalar tree_4_3_u03_r9_network.node[4].content_store 	decision_yes[4] 	41
scalar tree_4_3_u03_r9_network.node[4].content_store 	decision_no[4] 	23609
scalar tree_4_3_u03_r9_network.node[4].content_store 	decision_ratio[4] 	0.0017336152219873
scalar tree_4_3_u03_r9_network.node[5].core_layer 	interests[5] 	27586
scalar tree_4_3_u03_r9_network.node[5].core_layer 	data[5] 	24664
scalar tree_4_3_u03_r9_network.node[5].content_store 	p_hit[5] 	0.10592329442471
scalar tree_4_3_u03_r9_network.node[5].content_store 	hits[5] 	2922
scalar tree_4_3_u03_r9_network.node[5].content_store 	misses[5] 	24664
scalar tree_4_3_u03_r9_network.node[5].content_store 	decision_yes[5] 	102
scalar tree_4_3_u03_r9_network.node[5].content_store 	decision_no[5] 	24562
scalar tree_4_3_u03_r9_network.node[5].content_store 	decision_ratio[5] 	0.0041355822251054
scalar tree_4_3_u03_r9_network.node[6].core_layer 	interests[6] 	27566
scalar tree_4_3_u03_r9_network.node[6].core_layer 	data[6] 	24790
scalar tree_4_3_u03_r9_network.node[6].content_store 	p_hit[6] 	0.10070376550823
scalar tree_4_3_u03_r9_network.node[6].content_store 	hits[6] 	2776
scalar tree_4_3_u03_r9_network.node[6].content_store 	misses[6] 	24790
scalar tree_4_3_u03_r9_network.node[6].content_store 	decision_yes[6] 	139
scalar tree_4_3_u03_r9_network.node[6].content_store 	decision_no[6] 	24651
scalar tree_4_3_u03_r9_network.node[6].content_store 	decision_ratio[6] 	0.0056070996369504
scalar tree_4_3_u03_r9_network.node[7].core_layer 	interests[7] 	25893
scalar tree_4_3_u03_r9_network.node[7].core_layer 	data[7] 	24226
scalar tree_4_3_u03_r9_network.node[7].content_store 	p_hit[7] 	0.064380334453327
scalar tree_4_3_u03_r9_network.node[7].content_store 	hits[7] 	1667
scalar tree_4_3_u03_r9_network.node[7].content_store 	misses[7] 	24226
scalar tree_4_3_u03_r9_network.node[7].content_store 	decision_yes[7] 	51
scalar tree_4_3_u03_r9_network.node[7].content_store 	decision_no[7] 	24175
scalar tree_4_3_u03_r9_network.node[7].content_store 	decision_ratio[7] 	0.0021051762569141
scalar tree_4_3_u03_r9_network.node[8].core_layer 	interests[8] 	26247
scalar tree_4_3_u03_r9_network.node[8].core_layer 	data[8] 	24190
scalar tree_4_3_u03_r9_network.node[8].content_store 	p_hit[8] 	0.078332761839448
scalar tree_4_3_u03_r9_network.node[8].content_store 	hits[8] 	2056
scalar tree_4_3_u03_r9_network.node[8].content_store 	misses[8] 	24191
scalar tree_4_3_u03_r9_network.node[8].content_store 	decision_yes[8] 	51
scalar tree_4_3_u03_r9_network.node[8].content_store 	decision_no[8] 	24139
scalar tree_4_3_u03_r9_network.node[8].content_store 	decision_ratio[8] 	0.0021083092186854
scalar tree_4_3_u03_r9_network.node[9].core_layer 	interests[9] 	28057
scalar tree_4_3_u03_r9_network.node[9].core_layer 	data[9] 	24958
scalar tree_4_3_u03_r9_network.node[9].content_store 	p_hit[9] 	0.11045371921446
scalar tree_4_3_u03_r9_network.node[9].content_store 	hits[9] 	3099
scalar tree_4_3_u03_r9_network.node[9].content_store 	misses[9] 	24958
scalar tree_4_3_u03_r9_network.node[9].content_store 	decision_yes[9] 	123
scalar tree_4_3_u03_r9_network.node[9].content_store 	decision_no[9] 	24835
scalar tree_4_3_u03_r9_network.node[9].content_store 	decision_ratio[9] 	0.0049282795095761
scalar tree_4_3_u03_r9_network.node[10].core_layer 	interests[10] 	26297
scalar tree_4_3_u03_r9_network.node[10].core_layer 	data[10] 	24493
scalar tree_4_3_u03_r9_network.node[10].content_store 	p_hit[10] 	0.068600981100506
scalar tree_4_3_u03_r9_network.node[10].content_store 	hits[10] 	1804
scalar tree_4_3_u03_r9_network.node[10].content_store 	misses[10] 	24493
scalar tree_4_3_u03_r9_network.node[10].content_store 	decision_yes[10] 	54
scalar tree_4_3_u03_r9_network.node[10].content_store 	decision_no[10] 	24439
scalar tree_4_3_u03_r9_network.node[10].content_store 	decision_ratio[10] 	0.0022047115502388
scalar tree_4_3_u03_r9_network.node[11].core_layer 	interests[11] 	27410
scalar tree_4_3_u03_r9_network.node[11].core_layer 	data[11] 	24636
scalar tree_4_3_u03_r9_network.node[11].content_store 	p_hit[11] 	0.10116745713243
scalar tree_4_3_u03_r9_network.node[11].content_store 	hits[11] 	2773
scalar tree_4_3_u03_r9_network.node[11].content_store 	misses[11] 	24637
scalar tree_4_3_u03_r9_network.node[11].content_store 	decision_yes[11] 	85
scalar tree_4_3_u03_r9_network.node[11].content_store 	decision_no[11] 	24551
scalar tree_4_3_u03_r9_network.node[11].content_store 	decision_ratio[11] 	0.0034502354278292
scalar tree_4_3_u03_r9_network.node[12].core_layer 	interests[12] 	26115
scalar tree_4_3_u03_r9_network.node[12].core_layer 	data[12] 	24395
scalar tree_4_3_u03_r9_network.node[12].content_store 	p_hit[12] 	0.065900823281639
scalar tree_4_3_u03_r9_network.node[12].content_store 	hits[12] 	1721
scalar tree_4_3_u03_r9_network.node[12].content_store 	misses[12] 	24394
scalar tree_4_3_u03_r9_network.node[12].content_store 	decision_yes[12] 	61
scalar tree_4_3_u03_r9_network.node[12].content_store 	decision_no[12] 	24334
scalar tree_4_3_u03_r9_network.node[12].content_store 	decision_ratio[12] 	0.002500512400082
scalar tree_4_3_u03_r9_network.node[13].core_layer 	interests[13] 	12284
scalar tree_4_3_u03_r9_network.node[13].core_layer 	data[13] 	8637
scalar tree_4_3_u03_r9_network.node[13].content_store 	p_hit[13] 	0.29689026375773
scalar tree_4_3_u03_r9_network.node[13].content_store 	hits[13] 	3647
scalar tree_4_3_u03_r9_network.node[13].content_store 	misses[13] 	8637
scalar tree_4_3_u03_r9_network.node[13].content_store 	decision_yes[13] 	22
scalar tree_4_3_u03_r9_network.node[13].content_store 	decision_no[13] 	8615
scalar tree_4_3_u03_r9_network.node[13].content_store 	decision_ratio[13] 	0.0025471807340512
scalar tree_4_3_u03_r9_network.node[14].core_layer 	interests[14] 	12327
scalar tree_4_3_u03_r9_network.node[14].core_layer 	data[14] 	8548
scalar tree_4_3_u03_r9_network.node[14].content_store 	p_hit[14] 	0.30656282956113
scalar tree_4_3_u03_r9_network.node[14].content_store 	hits[14] 	3779
scalar tree_4_3_u03_r9_network.node[14].content_store 	misses[14] 	8548
scalar tree_4_3_u03_r9_network.node[14].content_store 	decision_yes[14] 	34
scalar tree_4_3_u03_r9_network.node[14].content_store 	decision_no[14] 	8514
scalar tree_4_3_u03_r9_network.node[14].content_store 	decision_ratio[14] 	0.0039775386055218
scalar tree_4_3_u03_r9_network.node[15].core_layer 	interests[15] 	11978
scalar tree_4_3_u03_r9_network.node[15].core_layer 	data[15] 	8530
scalar tree_4_3_u03_r9_network.node[15].content_store 	p_hit[15] 	0.28786107864418
scalar tree_4_3_u03_r9_network.node[15].content_store 	hits[15] 	3448
scalar tree_4_3_u03_r9_network.node[15].content_store 	misses[15] 	8530
scalar tree_4_3_u03_r9_network.node[15].content_store 	decision_yes[15] 	30
scalar tree_4_3_u03_r9_network.node[15].content_store 	decision_no[15] 	8500
scalar tree_4_3_u03_r9_network.node[15].content_store 	decision_ratio[15] 	0.0035169988276671
scalar tree_4_3_u03_r9_network.node[16].core_layer 	interests[16] 	12198
scalar tree_4_3_u03_r9_network.node[16].core_layer 	data[16] 	8650
scalar tree_4_3_u03_r9_network.node[16].content_store 	p_hit[16] 	0.29094933595671
scalar tree_4_3_u03_r9_network.node[16].content_store 	hits[16] 	3549
scalar tree_4_3_u03_r9_network.node[16].content_store 	misses[16] 	8649
scalar tree_4_3_u03_r9_network.node[16].content_store 	decision_yes[16] 	26
scalar tree_4_3_u03_r9_network.node[16].content_store 	decision_no[16] 	8624
scalar tree_4_3_u03_r9_network.node[16].content_store 	decision_ratio[16] 	0.0030057803468208
scalar tree_4_3_u03_r9_network.node[17].core_layer 	interests[17] 	12131
scalar tree_4_3_u03_r9_network.node[17].core_layer 	data[17] 	8621
scalar tree_4_3_u03_r9_network.node[17].content_store 	p_hit[17] 	0.28934135685434
scalar tree_4_3_u03_r9_network.node[17].content_store 	hits[17] 	3510
scalar tree_4_3_u03_r9_network.node[17].content_store 	misses[17] 	8621
scalar tree_4_3_u03_r9_network.node[17].content_store 	decision_yes[17] 	23
scalar tree_4_3_u03_r9_network.node[17].content_store 	decision_no[17] 	8598
scalar tree_4_3_u03_r9_network.node[17].content_store 	decision_ratio[17] 	0.0026679039554576
scalar tree_4_3_u03_r9_network.node[18].core_layer 	interests[18] 	12634
scalar tree_4_3_u03_r9_network.node[18].core_layer 	data[18] 	8754
scalar tree_4_3_u03_r9_network.node[18].content_store 	p_hit[18] 	0.30702865284154
scalar tree_4_3_u03_r9_network.node[18].content_store 	hits[18] 	3879
scalar tree_4_3_u03_r9_network.node[18].content_store 	misses[18] 	8755
scalar tree_4_3_u03_r9_network.node[18].content_store 	decision_yes[18] 	45
scalar tree_4_3_u03_r9_network.node[18].content_store 	decision_no[18] 	8709
scalar tree_4_3_u03_r9_network.node[18].content_store 	decision_ratio[18] 	0.0051405071967101
scalar tree_4_3_u03_r9_network.node[19].core_layer 	interests[19] 	12189
scalar tree_4_3_u03_r9_network.node[19].core_layer 	data[19] 	8585
scalar tree_4_3_u03_r9_network.node[19].content_store 	p_hit[19] 	0.29567642956764
scalar tree_4_3_u03_r9_network.node[19].content_store 	hits[19] 	3604
scalar tree_4_3_u03_r9_network.node[19].content_store 	misses[19] 	8585
scalar tree_4_3_u03_r9_network.node[19].content_store 	decision_yes[19] 	32
scalar tree_4_3_u03_r9_network.node[19].content_store 	decision_no[19] 	8553
scalar tree_4_3_u03_r9_network.node[19].content_store 	decision_ratio[19] 	0.0037274315666861
scalar tree_4_3_u03_r9_network.node[20].core_layer 	interests[20] 	12068
scalar tree_4_3_u03_r9_network.node[20].core_layer 	data[20] 	8475
scalar tree_4_3_u03_r9_network.node[20].content_store 	p_hit[20] 	0.29772953264833
scalar tree_4_3_u03_r9_network.node[20].content_store 	hits[20] 	3593
scalar tree_4_3_u03_r9_network.node[20].content_store 	misses[20] 	8475
scalar tree_4_3_u03_r9_network.node[20].content_store 	decision_yes[20] 	30
scalar tree_4_3_u03_r9_network.node[20].content_store 	decision_no[20] 	8445
scalar tree_4_3_u03_r9_network.node[20].content_store 	decision_ratio[20] 	0.0035398230088496
scalar tree_4_3_u03_r9_network.node[21].core_layer 	interests[21] 	12286
scalar tree_4_3_u03_r9_network.node[21].core_layer 	data[21] 	8565
scalar tree_4_3_u03_r9_network.node[21].content_store 	p_hit[21] 	0.30286504965001
scalar tree_4_3_u03_r9_network.node[21].content_store 	hits[21] 	3721
scalar tree_4_3_u03_r9_network.node[21].content_store 	misses[21] 	8565
scalar tree_4_3_u03_r9_network.node[21].content_store 	decision_yes[21] 	19
scalar tree_4_3_u03_r9_network.node[21].content_store 	decision_no[21] 	8546
scalar tree_4_3_u03_r9_network.node[21].content_store 	decision_ratio[21] 	0.0022183304144775
scalar tree_4_3_u03_r9_network.node[22].core_layer 	interests[22] 	12230
scalar tree_4_3_u03_r9_network.node[22].core_layer 	data[22] 	8686
scalar tree_4_3_u03_r9_network.node[22].content_store 	p_hit[22] 	0.2897792313982
scalar tree_4_3_u03_r9_network.node[22].content_store 	hits[22] 	3544
scalar tree_4_3_u03_r9_network.node[22].content_store 	misses[22] 	8686
scalar tree_4_3_u03_r9_network.node[22].content_store 	decision_yes[22] 	31
scalar tree_4_3_u03_r9_network.node[22].content_store 	decision_no[22] 	8655
scalar tree_4_3_u03_r9_network.node[22].content_store 	decision_ratio[22] 	0.0035689615473175
scalar tree_4_3_u03_r9_network.node[23].core_layer 	interests[23] 	12491
scalar tree_4_3_u03_r9_network.node[23].core_layer 	data[23] 	8736
scalar tree_4_3_u03_r9_network.node[23].content_store 	p_hit[23] 	0.30053638619806
scalar tree_4_3_u03_r9_network.node[23].content_store 	hits[23] 	3754
scalar tree_4_3_u03_r9_network.node[23].content_store 	misses[23] 	8737
scalar tree_4_3_u03_r9_network.node[23].content_store 	decision_yes[23] 	48
scalar tree_4_3_u03_r9_network.node[23].content_store 	decision_no[23] 	8688
scalar tree_4_3_u03_r9_network.node[23].content_store 	decision_ratio[23] 	0.0054945054945055
scalar tree_4_3_u03_r9_network.node[24].core_layer 	interests[24] 	12055
scalar tree_4_3_u03_r9_network.node[24].core_layer 	data[24] 	8500
scalar tree_4_3_u03_r9_network.node[24].content_store 	p_hit[24] 	0.29489838241394
scalar tree_4_3_u03_r9_network.node[24].content_store 	hits[24] 	3555
scalar tree_4_3_u03_r9_network.node[24].content_store 	misses[24] 	8500
scalar tree_4_3_u03_r9_network.node[24].content_store 	decision_yes[24] 	23
scalar tree_4_3_u03_r9_network.node[24].content_store 	decision_no[24] 	8477
scalar tree_4_3_u03_r9_network.node[24].content_store 	decision_ratio[24] 	0.0027058823529412
scalar tree_4_3_u03_r9_network.node[25].core_layer 	interests[25] 	12126
scalar tree_4_3_u03_r9_network.node[25].core_layer 	data[25] 	8642
scalar tree_4_3_u03_r9_network.node[25].content_store 	p_hit[25] 	0.28723404255319
scalar tree_4_3_u03_r9_network.node[25].content_store 	hits[25] 	3483
scalar tree_4_3_u03_r9_network.node[25].content_store 	misses[25] 	8643
scalar tree_4_3_u03_r9_network.node[25].content_store 	decision_yes[25] 	29
scalar tree_4_3_u03_r9_network.node[25].content_store 	decision_no[25] 	8613
scalar tree_4_3_u03_r9_network.node[25].content_store 	decision_ratio[25] 	0.0033557046979866
scalar tree_4_3_u03_r9_network.node[26].core_layer 	interests[26] 	12290
scalar tree_4_3_u03_r9_network.node[26].core_layer 	data[26] 	8774
scalar tree_4_3_u03_r9_network.node[26].content_store 	p_hit[26] 	0.28608624898291
scalar tree_4_3_u03_r9_network.node[26].content_store 	hits[26] 	3516
scalar tree_4_3_u03_r9_network.node[26].content_store 	misses[26] 	8774
scalar tree_4_3_u03_r9_network.node[26].content_store 	decision_yes[26] 	28
scalar tree_4_3_u03_r9_network.node[26].content_store 	decision_no[26] 	8746
scalar tree_4_3_u03_r9_network.node[26].content_store 	decision_ratio[26] 	0.0031912468657397
scalar tree_4_3_u03_r9_network.node[27].core_layer 	interests[27] 	12539
scalar tree_4_3_u03_r9_network.node[27].core_layer 	data[27] 	8623
scalar tree_4_3_u03_r9_network.node[27].content_store 	p_hit[27] 	0.3123056065077
scalar tree_4_3_u03_r9_network.node[27].content_store 	hits[27] 	3916
scalar tree_4_3_u03_r9_network.node[27].content_store 	misses[27] 	8623
scalar tree_4_3_u03_r9_network.node[27].content_store 	decision_yes[27] 	49
scalar tree_4_3_u03_r9_network.node[27].content_store 	decision_no[27] 	8574
scalar tree_4_3_u03_r9_network.node[27].content_store 	decision_ratio[27] 	0.0056824770961382
scalar tree_4_3_u03_r9_network.node[28].core_layer 	interests[28] 	12389
scalar tree_4_3_u03_r9_network.node[28].core_layer 	data[28] 	8652
scalar tree_4_3_u03_r9_network.node[28].content_store 	p_hit[28] 	0.3016385503269
scalar tree_4_3_u03_r9_network.node[28].content_store 	hits[28] 	3737
scalar tree_4_3_u03_r9_network.node[28].content_store 	misses[28] 	8652
scalar tree_4_3_u03_r9_network.node[28].content_store 	decision_yes[28] 	19
scalar tree_4_3_u03_r9_network.node[28].content_store 	decision_no[28] 	8633
scalar tree_4_3_u03_r9_network.node[28].content_store 	decision_ratio[28] 	0.0021960240406842
scalar tree_4_3_u03_r9_network.node[29].core_layer 	interests[29] 	12211
scalar tree_4_3_u03_r9_network.node[29].core_layer 	data[29] 	8561
scalar tree_4_3_u03_r9_network.node[29].content_store 	p_hit[29] 	0.29891081811481
scalar tree_4_3_u03_r9_network.node[29].content_store 	hits[29] 	3650
scalar tree_4_3_u03_r9_network.node[29].content_store 	misses[29] 	8561
scalar tree_4_3_u03_r9_network.node[29].content_store 	decision_yes[29] 	26
scalar tree_4_3_u03_r9_network.node[29].content_store 	decision_no[29] 	8535
scalar tree_4_3_u03_r9_network.node[29].content_store 	decision_ratio[29] 	0.0030370283845345
scalar tree_4_3_u03_r9_network.node[30].core_layer 	interests[30] 	12191
scalar tree_4_3_u03_r9_network.node[30].core_layer 	data[30] 	8564
scalar tree_4_3_u03_r9_network.node[30].content_store 	p_hit[30] 	0.29751455992125
scalar tree_4_3_u03_r9_network.node[30].content_store 	hits[30] 	3627
scalar tree_4_3_u03_r9_network.node[30].content_store 	misses[30] 	8564
scalar tree_4_3_u03_r9_network.node[30].content_store 	decision_yes[30] 	24
scalar tree_4_3_u03_r9_network.node[30].content_store 	decision_no[30] 	8540
scalar tree_4_3_u03_r9_network.node[30].content_store 	decision_ratio[30] 	0.0028024287716021
scalar tree_4_3_u03_r9_network.node[31].core_layer 	interests[31] 	12138
scalar tree_4_3_u03_r9_network.node[31].core_layer 	data[31] 	8569
scalar tree_4_3_u03_r9_network.node[31].content_store 	p_hit[31] 	0.29403526116329
scalar tree_4_3_u03_r9_network.node[31].content_store 	hits[31] 	3569
scalar tree_4_3_u03_r9_network.node[31].content_store 	misses[31] 	8569
scalar tree_4_3_u03_r9_network.node[31].content_store 	decision_yes[31] 	37
scalar tree_4_3_u03_r9_network.node[31].content_store 	decision_no[31] 	8532
scalar tree_4_3_u03_r9_network.node[31].content_store 	decision_ratio[31] 	0.0043178900688528
scalar tree_4_3_u03_r9_network.node[32].core_layer 	interests[32] 	12222
scalar tree_4_3_u03_r9_network.node[32].core_layer 	data[32] 	8674
scalar tree_4_3_u03_r9_network.node[32].content_store 	p_hit[32] 	0.2902961872034
scalar tree_4_3_u03_r9_network.node[32].content_store 	hits[32] 	3548
scalar tree_4_3_u03_r9_network.node[32].content_store 	misses[32] 	8674
scalar tree_4_3_u03_r9_network.node[32].content_store 	decision_yes[32] 	25
scalar tree_4_3_u03_r9_network.node[32].content_store 	decision_no[32] 	8649
scalar tree_4_3_u03_r9_network.node[32].content_store 	decision_ratio[32] 	0.0028821766197833
scalar tree_4_3_u03_r9_network.node[33].core_layer 	interests[33] 	12244
scalar tree_4_3_u03_r9_network.node[33].core_layer 	data[33] 	8596
scalar tree_4_3_u03_r9_network.node[33].content_store 	p_hit[33] 	0.29794184906893
scalar tree_4_3_u03_r9_network.node[33].content_store 	hits[33] 	3648
scalar tree_4_3_u03_r9_network.node[33].content_store 	misses[33] 	8596
scalar tree_4_3_u03_r9_network.node[33].content_store 	decision_yes[33] 	25
scalar tree_4_3_u03_r9_network.node[33].content_store 	decision_no[33] 	8571
scalar tree_4_3_u03_r9_network.node[33].content_store 	decision_ratio[33] 	0.0029083294555607
scalar tree_4_3_u03_r9_network.node[34].core_layer 	interests[34] 	12228
scalar tree_4_3_u03_r9_network.node[34].core_layer 	data[34] 	8587
scalar tree_4_3_u03_r9_network.node[34].content_store 	p_hit[34] 	0.29775924108603
scalar tree_4_3_u03_r9_network.node[34].content_store 	hits[34] 	3641
scalar tree_4_3_u03_r9_network.node[34].content_store 	misses[34] 	8587
scalar tree_4_3_u03_r9_network.node[34].content_store 	decision_yes[34] 	26
scalar tree_4_3_u03_r9_network.node[34].content_store 	decision_no[34] 	8561
scalar tree_4_3_u03_r9_network.node[34].content_store 	decision_ratio[34] 	0.003027832770467
scalar tree_4_3_u03_r9_network.node[35].core_layer 	interests[35] 	12287
scalar tree_4_3_u03_r9_network.node[35].core_layer 	data[35] 	8666
scalar tree_4_3_u03_r9_network.node[35].content_store 	p_hit[35] 	0.29462033043054
scalar tree_4_3_u03_r9_network.node[35].content_store 	hits[35] 	3620
scalar tree_4_3_u03_r9_network.node[35].content_store 	misses[35] 	8667
scalar tree_4_3_u03_r9_network.node[35].content_store 	decision_yes[35] 	29
scalar tree_4_3_u03_r9_network.node[35].content_store 	decision_no[35] 	8637
scalar tree_4_3_u03_r9_network.node[35].content_store 	decision_ratio[35] 	0.0033464112624048
scalar tree_4_3_u03_r9_network.node[36].core_layer 	interests[36] 	12259
scalar tree_4_3_u03_r9_network.node[36].core_layer 	data[36] 	8616
scalar tree_4_3_u03_r9_network.node[36].content_store 	p_hit[36] 	0.29708785382168
scalar tree_4_3_u03_r9_network.node[36].content_store 	hits[36] 	3642
scalar tree_4_3_u03_r9_network.node[36].content_store 	misses[36] 	8617
scalar tree_4_3_u03_r9_network.node[36].content_store 	decision_yes[36] 	16
scalar tree_4_3_u03_r9_network.node[36].content_store 	decision_no[36] 	8600
scalar tree_4_3_u03_r9_network.node[36].content_store 	decision_ratio[36] 	0.0018570102135562
scalar tree_4_3_u03_r9_network.node[37].core_layer 	interests[37] 	12166
scalar tree_4_3_u03_r9_network.node[37].core_layer 	data[37] 	8557
scalar tree_4_3_u03_r9_network.node[37].content_store 	p_hit[37] 	0.29672858786783
scalar tree_4_3_u03_r9_network.node[37].content_store 	hits[37] 	3610
scalar tree_4_3_u03_r9_network.node[37].content_store 	misses[37] 	8556
scalar tree_4_3_u03_r9_network.node[37].content_store 	decision_yes[37] 	27
scalar tree_4_3_u03_r9_network.node[37].content_store 	decision_no[37] 	8530
scalar tree_4_3_u03_r9_network.node[37].content_store 	decision_ratio[37] 	0.0031553114409256
scalar tree_4_3_u03_r9_network.node[38].core_layer 	interests[38] 	12001
scalar tree_4_3_u03_r9_network.node[38].core_layer 	data[38] 	8511
scalar tree_4_3_u03_r9_network.node[38].content_store 	p_hit[38] 	0.29080909924173
scalar tree_4_3_u03_r9_network.node[38].content_store 	hits[38] 	3490
scalar tree_4_3_u03_r9_network.node[38].content_store 	misses[38] 	8511
scalar tree_4_3_u03_r9_network.node[38].content_store 	decision_yes[38] 	24
scalar tree_4_3_u03_r9_network.node[38].content_store 	decision_no[38] 	8487
scalar tree_4_3_u03_r9_network.node[38].content_store 	decision_ratio[38] 	0.0028198801550934
scalar tree_4_3_u03_r9_network.node[39].core_layer 	interests[39] 	12017
scalar tree_4_3_u03_r9_network.node[39].core_layer 	data[39] 	8566
scalar tree_4_3_u03_r9_network.node[39].content_store 	p_hit[39] 	0.28717649995839
scalar tree_4_3_u03_r9_network.node[39].content_store 	hits[39] 	3451
scalar tree_4_3_u03_r9_network.node[39].content_store 	misses[39] 	8566
scalar tree_4_3_u03_r9_network.node[39].content_store 	decision_yes[39] 	24
scalar tree_4_3_u03_r9_network.node[39].content_store 	decision_no[39] 	8542
scalar tree_4_3_u03_r9_network.node[39].content_store 	decision_ratio[39] 	0.0028017744571562
scalar tree_4_3_u03_r9_network.client[13] 	hdistance[13] 	2.6318260439832
scalar tree_4_3_u03_r9_network.client[13] 	downloads[13] 	12141
scalar tree_4_3_u03_r9_network.client[13] 	avg_time[13] 	0.004063747902
scalar tree_4_3_u03_r9_network.client[14] 	hdistance[14] 	2.5982173174873
scalar tree_4_3_u03_r9_network.client[14] 	downloads[14] 	11780
scalar tree_4_3_u03_r9_network.client[14] 	avg_time[14] 	0.004019691448
scalar tree_4_3_u03_r9_network.client[15] 	hdistance[15] 	2.6567592670776
scalar tree_4_3_u03_r9_network.client[15] 	downloads[15] 	11843
scalar tree_4_3_u03_r9_network.client[15] 	avg_time[15] 	0.004101998212
scalar tree_4_3_u03_r9_network.client[16] 	hdistance[16] 	2.6232041430003
scalar tree_4_3_u03_r9_network.client[16] 	downloads[16] 	11972
scalar tree_4_3_u03_r9_network.client[16] 	avg_time[16] 	0.004071998341
scalar tree_4_3_u03_r9_network.client[17] 	hdistance[17] 	2.6261823051812
scalar tree_4_3_u03_r9_network.client[17] 	downloads[17] 	11947
scalar tree_4_3_u03_r9_network.client[17] 	avg_time[17] 	0.004072986058
scalar tree_4_3_u03_r9_network.client[18] 	hdistance[18] 	2.5634973404255
scalar tree_4_3_u03_r9_network.client[18] 	downloads[18] 	12032
scalar tree_4_3_u03_r9_network.client[18] 	avg_time[18] 	0.003967749672
scalar tree_4_3_u03_r9_network.client[19] 	hdistance[19] 	2.6177580280037
scalar tree_4_3_u03_r9_network.client[19] 	downloads[19] 	11927
scalar tree_4_3_u03_r9_network.client[19] 	avg_time[19] 	0.00405164456
scalar tree_4_3_u03_r9_network.client[20] 	hdistance[20] 	2.6050987675164
scalar tree_4_3_u03_r9_network.client[20] 	downloads[20] 	11846
scalar tree_4_3_u03_r9_network.client[20] 	avg_time[20] 	0.004035114378
scalar tree_4_3_u03_r9_network.client[21] 	hdistance[21] 	2.6076794657763
scalar tree_4_3_u03_r9_network.client[21] 	downloads[21] 	11980
scalar tree_4_3_u03_r9_network.client[21] 	avg_time[21] 	0.004036224076
scalar tree_4_3_u03_r9_network.client[22] 	hdistance[22] 	2.6401555904991
scalar tree_4_3_u03_r9_network.client[22] 	downloads[22] 	12083
scalar tree_4_3_u03_r9_network.client[22] 	avg_time[22] 	0.004083751014
scalar tree_4_3_u03_r9_network.client[23] 	hdistance[23] 	2.6378018318068
scalar tree_4_3_u03_r9_network.client[23] 	downloads[23] 	12010
scalar tree_4_3_u03_r9_network.client[23] 	avg_time[23] 	0.004065942032
scalar tree_4_3_u03_r9_network.client[24] 	hdistance[24] 	2.6407971075422
scalar tree_4_3_u03_r9_network.client[24] 	downloads[24] 	11893
scalar tree_4_3_u03_r9_network.client[24] 	avg_time[24] 	0.004077353467
scalar tree_4_3_u03_r9_network.client[25] 	hdistance[25] 	2.639846743295
scalar tree_4_3_u03_r9_network.client[25] 	downloads[25] 	12006
scalar tree_4_3_u03_r9_network.client[25] 	avg_time[25] 	0.004088119624
scalar tree_4_3_u03_r9_network.client[26] 	hdistance[26] 	2.6585466216772
scalar tree_4_3_u03_r9_network.client[26] 	downloads[26] 	12151
scalar tree_4_3_u03_r9_network.client[26] 	avg_time[26] 	0.00410922053
scalar tree_4_3_u03_r9_network.client[27] 	hdistance[27] 	2.5779963018995
scalar tree_4_3_u03_r9_network.client[27] 	downloads[27] 	11898
scalar tree_4_3_u03_r9_network.client[27] 	avg_time[27] 	0.003982515096
scalar tree_4_3_u03_r9_network.client[28] 	hdistance[28] 	2.5856766979115
scalar tree_4_3_u03_r9_network.client[28] 	downloads[28] 	12162
scalar tree_4_3_u03_r9_network.client[28] 	avg_time[28] 	0.00400657483
scalar tree_4_3_u03_r9_network.client[29] 	hdistance[29] 	2.606653293213
scalar tree_4_3_u03_r9_network.client[29] 	downloads[29] 	11964
scalar tree_4_3_u03_r9_network.client[29] 	avg_time[29] 	0.004036105327
scalar tree_4_3_u03_r9_network.client[30] 	hdistance[30] 	2.6160811603924
scalar tree_4_3_u03_r9_network.client[30] 	downloads[30] 	11927
scalar tree_4_3_u03_r9_network.client[30] 	avg_time[30] 	0.004048626143
scalar tree_4_3_u03_r9_network.client[31] 	hdistance[31] 	2.6368803811753
scalar tree_4_3_u03_r9_network.client[31] 	downloads[31] 	11963
scalar tree_4_3_u03_r9_network.client[31] 	avg_time[31] 	0.004070213494
scalar tree_4_3_u03_r9_network.client[32] 	hdistance[32] 	2.6769038701623
scalar tree_4_3_u03_r9_network.client[32] 	downloads[32] 	12015
scalar tree_4_3_u03_r9_network.client[32] 	avg_time[32] 	0.00412251052
scalar tree_4_3_u03_r9_network.client[33] 	hdistance[33] 	2.6221927571062
scalar tree_4_3_u03_r9_network.client[33] 	downloads[33] 	12067
scalar tree_4_3_u03_r9_network.client[33] 	avg_time[33] 	0.004049719373
scalar tree_4_3_u03_r9_network.client[34] 	hdistance[34] 	2.6202954185096
scalar tree_4_3_u03_r9_network.client[34] 	downloads[34] 	11983
scalar tree_4_3_u03_r9_network.client[34] 	avg_time[34] 	0.00405240458
scalar tree_4_3_u03_r9_network.client[35] 	hdistance[35] 	2.6291583499667
scalar tree_4_3_u03_r9_network.client[35] 	downloads[35] 	12024
scalar tree_4_3_u03_r9_network.client[35] 	avg_time[35] 	0.004068463719
scalar tree_4_3_u03_r9_network.client[36] 	hdistance[36] 	2.622617957893
scalar tree_4_3_u03_r9_network.client[36] 	downloads[36] 	12017
scalar tree_4_3_u03_r9_network.client[36] 	avg_time[36] 	0.004060411421
scalar tree_4_3_u03_r9_network.client[37] 	hdistance[37] 	2.6346346346346
scalar tree_4_3_u03_r9_network.client[37] 	downloads[37] 	11988
scalar tree_4_3_u03_r9_network.client[37] 	avg_time[37] 	0.0040677314
scalar tree_4_3_u03_r9_network.client[38] 	hdistance[38] 	2.660721832474
scalar tree_4_3_u03_r9_network.client[38] 	downloads[38] 	11831
scalar tree_4_3_u03_r9_network.client[38] 	avg_time[38] 	0.004106496884
scalar tree_4_3_u03_r9_network.client[39] 	hdistance[39] 	2.6730785455159
scalar tree_4_3_u03_r9_network.client[39] 	downloads[39] 	11853
scalar tree_4_3_u03_r9_network.client[39] 	avg_time[39] 	0.004122497691
