version 2
run General-376-20160901-06:55:16-8710
attr a 0.9
attr cd ffc0.25
attr configname General
attr cr lru
attr datetime 20160901-06:55:16
attr experiment General
attr fsize 1
attr inifile hw5115/scenario_Y/omnetp.ini
attr iterationvars "$name=tree_4_3, $un=06, $rep=6, $cd=ffc0.25, $cr=lru, $fsize=1, $a=0.9, $sl=nrr, $ttl=1000, $variance=0.05"
attr iterationvars2 "$name=tree_4_3, $un=06, $rep=6, $cd=ffc0.25, $cr=lru, $fsize=1, $a=0.9, $sl=nrr, $ttl=1000, $variance=0.05, $repetition=0"
attr measurement "$name=tree_4_3, $un=06, $rep=6, $cd=ffc0.25, $cr=lru, $fsize=1, $a=0.9, $sl=nrr, $ttl=1000, $variance=0.05"
attr name tree_4_3
attr network networks.${name}_u${un}_r${rep}_network
attr processid 8710
attr rep 6
attr repetition 0
attr replication #0
attr resultdir results
attr runnumber 376
attr seedset 6
attr sl nrr
attr ttl 1000
attr un 06
attr variance 0.05

scalar . 	a 	0.9
scalar . 	fsize 	1
scalar . 	rep 	6
scalar . 	ttl 	1000
scalar . 	un 	06
scalar . 	variance 	0.05
scalar tree_4_3_u06_r6_network.content_distribution 	repo-0 	0
scalar tree_4_3_u06_r6_network.content_distribution 	client-0 	13
scalar tree_4_3_u06_r6_network.content_distribution 	client-1 	14
scalar tree_4_3_u06_r6_network.content_distribution 	client-2 	15
scalar tree_4_3_u06_r6_network.content_distribution 	client-3 	16
scalar tree_4_3_u06_r6_network.content_distribution 	client-4 	17
scalar tree_4_3_u06_r6_network.content_distribution 	client-5 	18
scalar tree_4_3_u06_r6_network.content_distribution 	client-6 	19
scalar tree_4_3_u06_r6_network.content_distribution 	client-7 	20
scalar tree_4_3_u06_r6_network.content_distribution 	client-8 	21
scalar tree_4_3_u06_r6_network.content_distribution 	client-9 	22
scalar tree_4_3_u06_r6_network.content_distribution 	client-10 	23
scalar tree_4_3_u06_r6_network.content_distribution 	client-11 	24
scalar tree_4_3_u06_r6_network.content_distribution 	client-12 	25
scalar tree_4_3_u06_r6_network.content_distribution 	client-13 	26
scalar tree_4_3_u06_r6_network.content_distribution 	client-14 	27
scalar tree_4_3_u06_r6_network.content_distribution 	client-15 	28
scalar tree_4_3_u06_r6_network.content_distribution 	client-16 	29
scalar tree_4_3_u06_r6_network.content_distribution 	client-17 	30
scalar tree_4_3_u06_r6_network.content_distribution 	client-18 	31
scalar tree_4_3_u06_r6_network.content_distribution 	client-19 	32
scalar tree_4_3_u06_r6_network.content_distribution 	client-20 	33
scalar tree_4_3_u06_r6_network.content_distribution 	client-21 	34
scalar tree_4_3_u06_r6_network.content_distribution 	client-22 	35
scalar tree_4_3_u06_r6_network.content_distribution 	client-23 	36
scalar tree_4_3_u06_r6_network.content_distribution 	client-24 	37
scalar tree_4_3_u06_r6_network.content_distribution 	client-25 	38
scalar tree_4_3_u06_r6_network.content_distribution 	client-26 	39
scalar tree_4_3_u06_r6_network.content_distribution 	repo-0_card 	100000
scalar tree_4_3_u06_r6_network.content_distribution 	repo-0_price 	0
scalar tree_4_3_u06_r6_network.statistics 	stabilization_time 	1717.2
scalar tree_4_3_u06_r6_network.statistics 	p_hit 	0.23736574454903
scalar tree_4_3_u06_r6_network.statistics 	interests 	24710.825
scalar tree_4_3_u06_r6_network.statistics 	data 	16588.575
scalar tree_4_3_u06_r6_network.statistics 	hdistance 	2.6010094464374
scalar tree_4_3_u06_r6_network.statistics 	avg_time 	0.00408471211
scalar tree_4_3_u06_r6_network.statistics 	downloads 	324890
scalar tree_4_3_u06_r6_network.statistics 	total_cost 	0
scalar tree_4_3_u06_r6_network.statistics 	total_replicas 	100000
scalar tree_4_3_u06_r6_network.statistics 	inner_hit 	0.44136476961433
scalar tree_4_3_u06_r6_network.node[0].core_layer 	interests[0] 	184669
scalar tree_4_3_u06_r6_network.node[0].core_layer 	repo_load[0] 	181495
scalar tree_4_3_u06_r6_network.node[0].core_layer 	data[0] 	0
scalar tree_4_3_u06_r6_network.node[0].core_layer 	repo_int[0] 	181495
scalar tree_4_3_u06_r6_network.node[0].content_store 	p_hit[0] 	0.017187508461084
scalar tree_4_3_u06_r6_network.node[0].content_store 	hits[0] 	3174
scalar tree_4_3_u06_r6_network.node[0].content_store 	misses[0] 	181495
scalar tree_4_3_u06_r6_network.node[0].content_store 	decision_yes[0] 	176
scalar tree_4_3_u06_r6_network.node[0].content_store 	decision_no[0] 	181319
scalar tree_4_3_u06_r6_network.node[0].content_store 	decision_ratio[0] 	0.00096972368384804
scalar tree_4_3_u06_r6_network.node[1].core_layer 	interests[1] 	102444
scalar tree_4_3_u06_r6_network.node[1].core_layer 	data[1] 	99570
scalar tree_4_3_u06_r6_network.node[1].content_store 	p_hit[1] 	0.028054351645777
scalar tree_4_3_u06_r6_network.node[1].content_store 	hits[1] 	2874
scalar tree_4_3_u06_r6_network.node[1].content_store 	misses[1] 	99570
scalar tree_4_3_u06_r6_network.node[1].content_store 	decision_yes[1] 	111
scalar tree_4_3_u06_r6_network.node[1].content_store 	decision_no[1] 	99459
scalar tree_4_3_u06_r6_network.node[1].content_store 	decision_ratio[1] 	0.0011147936125339
scalar tree_4_3_u06_r6_network.node[2].core_layer 	interests[2] 	32798
scalar tree_4_3_u06_r6_network.node[2].core_layer 	data[2] 	29980
scalar tree_4_3_u06_r6_network.node[2].content_store 	p_hit[2] 	0.085919873162998
scalar tree_4_3_u06_r6_network.node[2].content_store 	hits[2] 	2818
scalar tree_4_3_u06_r6_network.node[2].content_store 	misses[2] 	29980
scalar tree_4_3_u06_r6_network.node[2].content_store 	decision_yes[2] 	59
scalar tree_4_3_u06_r6_network.node[2].content_store 	decision_no[2] 	29921
scalar tree_4_3_u06_r6_network.node[2].content_store 	decision_ratio[2] 	0.001967978652435
scalar tree_4_3_u06_r6_network.node[3].core_layer 	interests[3] 	73832
scalar tree_4_3_u06_r6_network.node[3].core_layer 	data[3] 	70119
scalar tree_4_3_u06_r6_network.node[3].content_store 	p_hit[3] 	0.050262758695417
scalar tree_4_3_u06_r6_network.node[3].content_store 	hits[3] 	3711
scalar tree_4_3_u06_r6_network.node[3].content_store 	misses[3] 	70121
scalar tree_4_3_u06_r6_network.node[3].content_store 	decision_yes[3] 	125
scalar tree_4_3_u06_r6_network.node[3].content_store 	decision_no[3] 	69994
scalar tree_4_3_u06_r6_network.node[3].content_store 	decision_ratio[3] 	0.0017826837233845
scalar tree_4_3_u06_r6_network.node[4].core_layer 	interests[4] 	42304
scalar tree_4_3_u06_r6_network.node[4].core_layer 	data[4] 	39454
scalar tree_4_3_u06_r6_network.node[4].content_store 	p_hit[4] 	0.067369515885023
scalar tree_4_3_u06_r6_network.node[4].content_store 	hits[4] 	2850
scalar tree_4_3_u06_r6_network.node[4].content_store 	misses[4] 	39454
scalar tree_4_3_u06_r6_network.node[4].content_store 	decision_yes[4] 	73
scalar tree_4_3_u06_r6_network.node[4].content_store 	decision_no[4] 	39381
scalar tree_4_3_u06_r6_network.node[4].content_store 	decision_ratio[4] 	0.0018502559943225
scalar tree_4_3_u06_r6_network.node[5].core_layer 	interests[5] 	28164
scalar tree_4_3_u06_r6_network.node[5].core_layer 	data[5] 	25340
scalar tree_4_3_u06_r6_network.node[5].content_store 	p_hit[5] 	0.10026984803295
scalar tree_4_3_u06_r6_network.node[5].content_store 	hits[5] 	2824
scalar tree_4_3_u06_r6_network.node[5].content_store 	misses[5] 	25340
scalar tree_4_3_u06_r6_network.node[5].content_store 	decision_yes[5] 	88
scalar tree_4_3_u06_r6_network.node[5].content_store 	decision_no[5] 	25252
scalar tree_4_3_u06_r6_network.node[5].content_store 	decision_ratio[5] 	0.0034727703235991
scalar tree_4_3_u06_r6_network.node[6].core_layer 	interests[6] 	14598
scalar tree_4_3_u06_r6_network.node[6].core_layer 	data[6] 	10957
scalar tree_4_3_u06_r6_network.node[6].content_store 	p_hit[6] 	0.24948623099055
scalar tree_4_3_u06_r6_network.node[6].content_store 	hits[6] 	3642
scalar tree_4_3_u06_r6_network.node[6].content_store 	misses[6] 	10956
scalar tree_4_3_u06_r6_network.node[6].content_store 	decision_yes[6] 	63
scalar tree_4_3_u06_r6_network.node[6].content_store 	decision_no[6] 	10894
scalar tree_4_3_u06_r6_network.node[6].content_store 	decision_ratio[6] 	0.005749749018892
scalar tree_4_3_u06_r6_network.node[7].core_layer 	interests[7] 	44487
scalar tree_4_3_u06_r6_network.node[7].core_layer 	data[7] 	41148
scalar tree_4_3_u06_r6_network.node[7].content_store 	p_hit[7] 	0.075033155753366
scalar tree_4_3_u06_r6_network.node[7].content_store 	hits[7] 	3338
scalar tree_4_3_u06_r6_network.node[7].content_store 	misses[7] 	41149
scalar tree_4_3_u06_r6_network.node[7].content_store 	decision_yes[7] 	94
scalar tree_4_3_u06_r6_network.node[7].content_store 	decision_no[7] 	41054
scalar tree_4_3_u06_r6_network.node[7].content_store 	decision_ratio[7] 	0.0022844366676388
scalar tree_4_3_u06_r6_network.node[8].core_layer 	interests[8] 	17610
scalar tree_4_3_u06_r6_network.node[8].core_layer 	data[8] 	15863
scalar tree_4_3_u06_r6_network.node[8].content_store 	p_hit[8] 	0.099204997160704
scalar tree_4_3_u06_r6_network.node[8].content_store 	hits[8] 	1747
scalar tree_4_3_u06_r6_network.node[8].content_store 	misses[8] 	15863
scalar tree_4_3_u06_r6_network.node[8].content_store 	decision_yes[8] 	40
scalar tree_4_3_u06_r6_network.node[8].content_store 	decision_no[8] 	15823
scalar tree_4_3_u06_r6_network.node[8].content_store 	decision_ratio[8] 	0.0025215911239992
scalar tree_4_3_u06_r6_network.node[9].core_layer 	interests[9] 	22226
scalar tree_4_3_u06_r6_network.node[9].core_layer 	data[9] 	18617
scalar tree_4_3_u06_r6_network.node[9].content_store 	p_hit[9] 	0.16233240349141
scalar tree_4_3_u06_r6_network.node[9].content_store 	hits[9] 	3608
scalar tree_4_3_u06_r6_network.node[9].content_store 	misses[9] 	18618
scalar tree_4_3_u06_r6_network.node[9].content_store 	decision_yes[9] 	77
scalar tree_4_3_u06_r6_network.node[9].content_store 	decision_no[9] 	18540
scalar tree_4_3_u06_r6_network.node[9].content_store 	decision_ratio[9] 	0.0041360047268625
scalar tree_4_3_u06_r6_network.node[10].core_layer 	interests[10] 	34557
scalar tree_4_3_u06_r6_network.node[10].core_layer 	data[10] 	32054
scalar tree_4_3_u06_r6_network.node[10].content_store 	p_hit[10] 	0.072402118239431
scalar tree_4_3_u06_r6_network.node[10].content_store 	hits[10] 	2502
scalar tree_4_3_u06_r6_network.node[10].content_store 	misses[10] 	32055
scalar tree_4_3_u06_r6_network.node[10].content_store 	decision_yes[10] 	63
scalar tree_4_3_u06_r6_network.node[10].content_store 	decision_no[10] 	31991
scalar tree_4_3_u06_r6_network.node[10].content_store 	decision_ratio[10] 	0.0019654333312535
scalar tree_4_3_u06_r6_network.node[11].core_layer 	interests[11] 	19396
scalar tree_4_3_u06_r6_network.node[11].core_layer 	data[11] 	16906
scalar tree_4_3_u06_r6_network.node[11].content_store 	p_hit[11] 	0.12837698494535
scalar tree_4_3_u06_r6_network.node[11].content_store 	hits[11] 	2490
scalar tree_4_3_u06_r6_network.node[11].content_store 	misses[11] 	16906
scalar tree_4_3_u06_r6_network.node[11].content_store 	decision_yes[11] 	36
scalar tree_4_3_u06_r6_network.node[11].content_store 	decision_no[11] 	16870
scalar tree_4_3_u06_r6_network.node[11].content_store 	decision_ratio[11] 	0.0021294215071572
scalar tree_4_3_u06_r6_network.node[12].core_layer 	interests[12] 	29207
scalar tree_4_3_u06_r6_network.node[12].core_layer 	data[12] 	25985
scalar tree_4_3_u06_r6_network.node[12].content_store 	p_hit[12] 	0.11028178176465
scalar tree_4_3_u06_r6_network.node[12].content_store 	hits[12] 	3221
scalar tree_4_3_u06_r6_network.node[12].content_store 	misses[12] 	25986
scalar tree_4_3_u06_r6_network.node[12].content_store 	decision_yes[12] 	67
scalar tree_4_3_u06_r6_network.node[12].content_store 	decision_no[12] 	25918
scalar tree_4_3_u06_r6_network.node[12].content_store 	decision_ratio[12] 	0.0025784106215124
scalar tree_4_3_u06_r6_network.node[13].core_layer 	interests[13] 	12472
scalar tree_4_3_u06_r6_network.node[13].core_layer 	data[13] 	8767
scalar tree_4_3_u06_r6_network.node[13].content_store 	p_hit[13] 	0.29706542655548
scalar tree_4_3_u06_r6_network.node[13].content_store 	hits[13] 	3705
scalar tree_4_3_u06_r6_network.node[13].content_store 	misses[13] 	8767
scalar tree_4_3_u06_r6_network.node[13].content_store 	decision_yes[13] 	30
scalar tree_4_3_u06_r6_network.node[13].content_store 	decision_no[13] 	8737
scalar tree_4_3_u06_r6_network.node[13].content_store 	decision_ratio[13] 	0.0034219231207939
scalar tree_4_3_u06_r6_network.node[14].core_layer 	interests[14] 	12502
scalar tree_4_3_u06_r6_network.node[14].core_layer 	data[14] 	8781
scalar tree_4_3_u06_r6_network.node[14].content_store 	p_hit[14] 	0.29763237881939
scalar tree_4_3_u06_r6_network.node[14].content_store 	hits[14] 	3721
scalar tree_4_3_u06_r6_network.node[14].content_store 	misses[14] 	8781
scalar tree_4_3_u06_r6_network.node[14].content_store 	decision_yes[14] 	30
scalar tree_4_3_u06_r6_network.node[14].content_store 	decision_no[14] 	8751
scalar tree_4_3_u06_r6_network.node[14].content_store 	decision_ratio[14] 	0.0034164673727366
scalar tree_4_3_u06_r6_network.node[15].core_layer 	interests[15] 	12896
scalar tree_4_3_u06_r6_network.node[15].core_layer 	data[15] 	8815
scalar tree_4_3_u06_r6_network.node[15].content_store 	p_hit[15] 	0.3164547146402
scalar tree_4_3_u06_r6_network.node[15].content_store 	hits[15] 	4081
scalar tree_4_3_u06_r6_network.node[15].content_store 	misses[15] 	8815
scalar tree_4_3_u06_r6_network.node[15].content_store 	decision_yes[15] 	24
scalar tree_4_3_u06_r6_network.node[15].content_store 	decision_no[15] 	8791
scalar tree_4_3_u06_r6_network.node[15].content_store 	decision_ratio[15] 	0.0027226318774816
scalar tree_4_3_u06_r6_network.node[16].core_layer 	interests[16] 	13135
scalar tree_4_3_u06_r6_network.node[16].core_layer 	data[16] 	8928
scalar tree_4_3_u06_r6_network.node[16].content_store 	p_hit[16] 	0.32028930338789
scalar tree_4_3_u06_r6_network.node[16].content_store 	hits[16] 	4207
scalar tree_4_3_u06_r6_network.node[16].content_store 	misses[16] 	8928
scalar tree_4_3_u06_r6_network.node[16].content_store 	decision_yes[16] 	20
scalar tree_4_3_u06_r6_network.node[16].content_store 	decision_no[16] 	8908
scalar tree_4_3_u06_r6_network.node[16].content_store 	decision_ratio[16] 	0.0022401433691756
scalar tree_4_3_u06_r6_network.node[17].core_layer 	interests[17] 	12538
scalar tree_4_3_u06_r6_network.node[17].core_layer 	data[17] 	8888
scalar tree_4_3_u06_r6_network.node[17].content_store 	p_hit[17] 	0.29111501036848
scalar tree_4_3_u06_r6_network.node[17].content_store 	hits[17] 	3650
scalar tree_4_3_u06_r6_network.node[17].content_store 	misses[17] 	8888
scalar tree_4_3_u06_r6_network.node[17].content_store 	decision_yes[17] 	21
scalar tree_4_3_u06_r6_network.node[17].content_store 	decision_no[17] 	8867
scalar tree_4_3_u06_r6_network.node[17].content_store 	decision_ratio[17] 	0.0023627362736274
scalar tree_4_3_u06_r6_network.node[18].core_layer 	interests[18] 	12470
scalar tree_4_3_u06_r6_network.node[18].core_layer 	data[18] 	8733
scalar tree_4_3_u06_r6_network.node[18].content_store 	p_hit[18] 	0.29967923015237
scalar tree_4_3_u06_r6_network.node[18].content_store 	hits[18] 	3737
scalar tree_4_3_u06_r6_network.node[18].content_store 	misses[18] 	8733
scalar tree_4_3_u06_r6_network.node[18].content_store 	decision_yes[18] 	27
scalar tree_4_3_u06_r6_network.node[18].content_store 	decision_no[18] 	8706
scalar tree_4_3_u06_r6_network.node[18].content_store 	decision_ratio[18] 	0.0030917210580557
scalar tree_4_3_u06_r6_network.node[19].core_layer 	interests[19] 	12956
scalar tree_4_3_u06_r6_network.node[19].core_layer 	data[19] 	8761
scalar tree_4_3_u06_r6_network.node[19].content_store 	p_hit[19] 	0.32378820623649
scalar tree_4_3_u06_r6_network.node[19].content_store 	hits[19] 	4195
scalar tree_4_3_u06_r6_network.node[19].content_store 	misses[19] 	8761
scalar tree_4_3_u06_r6_network.node[19].content_store 	decision_yes[19] 	22
scalar tree_4_3_u06_r6_network.node[19].content_store 	decision_no[19] 	8739
scalar tree_4_3_u06_r6_network.node[19].content_store 	decision_ratio[19] 	0.0025111288665677
scalar tree_4_3_u06_r6_network.node[20].core_layer 	interests[20] 	12982
scalar tree_4_3_u06_r6_network.node[20].core_layer 	data[20] 	8877
scalar tree_4_3_u06_r6_network.node[20].content_store 	p_hit[20] 	0.31613002619011
scalar tree_4_3_u06_r6_network.node[20].content_store 	hits[20] 	4104
scalar tree_4_3_u06_r6_network.node[20].content_store 	misses[20] 	8878
scalar tree_4_3_u06_r6_network.node[20].content_store 	decision_yes[20] 	31
scalar tree_4_3_u06_r6_network.node[20].content_store 	decision_no[20] 	8846
scalar tree_4_3_u06_r6_network.node[20].content_store 	decision_ratio[20] 	0.0034921707784161
scalar tree_4_3_u06_r6_network.node[21].core_layer 	interests[21] 	12452
scalar tree_4_3_u06_r6_network.node[21].core_layer 	data[21] 	8777
scalar tree_4_3_u06_r6_network.node[21].content_store 	p_hit[21] 	0.29521362030196
scalar tree_4_3_u06_r6_network.node[21].content_store 	hits[21] 	3676
scalar tree_4_3_u06_r6_network.node[21].content_store 	misses[21] 	8776
scalar tree_4_3_u06_r6_network.node[21].content_store 	decision_yes[21] 	20
scalar tree_4_3_u06_r6_network.node[21].content_store 	decision_no[21] 	8757
scalar tree_4_3_u06_r6_network.node[21].content_store 	decision_ratio[21] 	0.0022786829212715
scalar tree_4_3_u06_r6_network.node[22].core_layer 	interests[22] 	12666
scalar tree_4_3_u06_r6_network.node[22].core_layer 	data[22] 	8897
scalar tree_4_3_u06_r6_network.node[22].content_store 	p_hit[22] 	0.29756829306806
scalar tree_4_3_u06_r6_network.node[22].content_store 	hits[22] 	3769
scalar tree_4_3_u06_r6_network.node[22].content_store 	misses[22] 	8897
scalar tree_4_3_u06_r6_network.node[22].content_store 	decision_yes[22] 	40
scalar tree_4_3_u06_r6_network.node[22].content_store 	decision_no[22] 	8857
scalar tree_4_3_u06_r6_network.node[22].content_store 	decision_ratio[22] 	0.0044958974935371
scalar tree_4_3_u06_r6_network.node[23].core_layer 	interests[23] 	12626
scalar tree_4_3_u06_r6_network.node[23].core_layer 	data[23] 	8866
scalar tree_4_3_u06_r6_network.node[23].content_store 	p_hit[23] 	0.29779819420244
scalar tree_4_3_u06_r6_network.node[23].content_store 	hits[23] 	3760
scalar tree_4_3_u06_r6_network.node[23].content_store 	misses[23] 	8866
scalar tree_4_3_u06_r6_network.node[23].content_store 	decision_yes[23] 	32
scalar tree_4_3_u06_r6_network.node[23].content_store 	decision_no[23] 	8834
scalar tree_4_3_u06_r6_network.node[23].content_store 	decision_ratio[23] 	0.0036092939318746
scalar tree_4_3_u06_r6_network.node[24].core_layer 	interests[24] 	12514
scalar tree_4_3_u06_r6_network.node[24].core_layer 	data[24] 	8749
scalar tree_4_3_u06_r6_network.node[24].content_store 	p_hit[24] 	0.30086303340259
scalar tree_4_3_u06_r6_network.node[24].content_store 	hits[24] 	3765
scalar tree_4_3_u06_r6_network.node[24].content_store 	misses[24] 	8749
scalar tree_4_3_u06_r6_network.node[24].content_store 	decision_yes[24] 	36
scalar tree_4_3_u06_r6_network.node[24].content_store 	decision_no[24] 	8713
scalar tree_4_3_u06_r6_network.node[24].content_store 	decision_ratio[24] 	0.0041147559721111
scalar tree_4_3_u06_r6_network.node[25].core_layer 	interests[25] 	12990
scalar tree_4_3_u06_r6_network.node[25].core_layer 	data[25] 	8798
scalar tree_4_3_u06_r6_network.node[25].content_store 	p_hit[25] 	0.32263279445727
scalar tree_4_3_u06_r6_network.node[25].content_store 	hits[25] 	4191
scalar tree_4_3_u06_r6_network.node[25].content_store 	misses[25] 	8799
scalar tree_4_3_u06_r6_network.node[25].content_store 	decision_yes[25] 	27
scalar tree_4_3_u06_r6_network.node[25].content_store 	decision_no[25] 	8771
scalar tree_4_3_u06_r6_network.node[25].content_store 	decision_ratio[25] 	0.0030688792907479
scalar tree_4_3_u06_r6_network.node[26].core_layer 	interests[26] 	12123
scalar tree_4_3_u06_r6_network.node[26].core_layer 	data[26] 	8691
scalar tree_4_3_u06_r6_network.node[26].content_store 	p_hit[26] 	0.28309824300916
scalar tree_4_3_u06_r6_network.node[26].content_store 	hits[26] 	3432
scalar tree_4_3_u06_r6_network.node[26].content_store 	misses[26] 	8691
scalar tree_4_3_u06_r6_network.node[26].content_store 	decision_yes[26] 	21
scalar tree_4_3_u06_r6_network.node[26].content_store 	decision_no[26] 	8670
scalar tree_4_3_u06_r6_network.node[26].content_store 	decision_ratio[26] 	0.0024162927166034
scalar tree_4_3_u06_r6_network.node[27].core_layer 	interests[27] 	12831
scalar tree_4_3_u06_r6_network.node[27].core_layer 	data[27] 	8906
scalar tree_4_3_u06_r6_network.node[27].content_store 	p_hit[27] 	0.30589977398488
scalar tree_4_3_u06_r6_network.node[27].content_store 	hits[27] 	3925
scalar tree_4_3_u06_r6_network.node[27].content_store 	misses[27] 	8906
scalar tree_4_3_u06_r6_network.node[27].content_store 	decision_yes[27] 	31
scalar tree_4_3_u06_r6_network.node[27].content_store 	decision_no[27] 	8875
scalar tree_4_3_u06_r6_network.node[27].content_store 	decision_ratio[27] 	0.0034807994610375
scalar tree_4_3_u06_r6_network.node[28].core_layer 	interests[28] 	13021
scalar tree_4_3_u06_r6_network.node[28].core_layer 	data[28] 	8759
scalar tree_4_3_u06_r6_network.node[28].content_store 	p_hit[28] 	0.32731741033715
scalar tree_4_3_u06_r6_network.node[28].content_store 	hits[28] 	4262
scalar tree_4_3_u06_r6_network.node[28].content_store 	misses[28] 	8759
scalar tree_4_3_u06_r6_network.node[28].content_store 	decision_yes[28] 	30
scalar tree_4_3_u06_r6_network.node[28].content_store 	decision_no[28] 	8729
scalar tree_4_3_u06_r6_network.node[28].content_store 	decision_ratio[28] 	0.0034250485215207
scalar tree_4_3_u06_r6_network.node[29].core_layer 	interests[29] 	12348
scalar tree_4_3_u06_r6_network.node[29].core_layer 	data[29] 	8594
scalar tree_4_3_u06_r6_network.node[29].content_store 	p_hit[29] 	0.30401684483317
scalar tree_4_3_u06_r6_network.node[29].content_store 	hits[29] 	3754
scalar tree_4_3_u06_r6_network.node[29].content_store 	misses[29] 	8594
scalar tree_4_3_u06_r6_network.node[29].content_store 	decision_yes[29] 	30
scalar tree_4_3_u06_r6_network.node[29].content_store 	decision_no[29] 	8564
scalar tree_4_3_u06_r6_network.node[29].content_store 	decision_ratio[29] 	0.0034908075401443
scalar tree_4_3_u06_r6_network.node[30].core_layer 	interests[30] 	12624
scalar tree_4_3_u06_r6_network.node[30].core_layer 	data[30] 	8840
scalar tree_4_3_u06_r6_network.node[30].content_store 	p_hit[30] 	0.29974651457541
scalar tree_4_3_u06_r6_network.node[30].content_store 	hits[30] 	3784
scalar tree_4_3_u06_r6_network.node[30].content_store 	misses[30] 	8840
scalar tree_4_3_u06_r6_network.node[30].content_store 	decision_yes[30] 	40
scalar tree_4_3_u06_r6_network.node[30].content_store 	decision_no[30] 	8800
scalar tree_4_3_u06_r6_network.node[30].content_store 	decision_ratio[30] 	0.0045248868778281
scalar tree_4_3_u06_r6_network.node[31].core_layer 	interests[31] 	12417
scalar tree_4_3_u06_r6_network.node[31].core_layer 	data[31] 	8700
scalar tree_4_3_u06_r6_network.node[31].content_store 	p_hit[31] 	0.29934766851897
scalar tree_4_3_u06_r6_network.node[31].content_store 	hits[31] 	3717
scalar tree_4_3_u06_r6_network.node[31].content_store 	misses[31] 	8700
scalar tree_4_3_u06_r6_network.node[31].content_store 	decision_yes[31] 	34
scalar tree_4_3_u06_r6_network.node[31].content_store 	decision_no[31] 	8666
scalar tree_4_3_u06_r6_network.node[31].content_store 	decision_ratio[31] 	0.0039080459770115
scalar tree_4_3_u06_r6_network.node[32].core_layer 	interests[32] 	12725
scalar tree_4_3_u06_r6_network.node[32].core_layer 	data[32] 	8779
scalar tree_4_3_u06_r6_network.node[32].content_store 	p_hit[32] 	0.31009823182711
scalar tree_4_3_u06_r6_network.node[32].content_store 	hits[32] 	3946
scalar tree_4_3_u06_r6_network.node[32].content_store 	misses[32] 	8779
scalar tree_4_3_u06_r6_network.node[32].content_store 	decision_yes[32] 	31
scalar tree_4_3_u06_r6_network.node[32].content_store 	decision_no[32] 	8748
scalar tree_4_3_u06_r6_network.node[32].content_store 	decision_ratio[32] 	0.0035311538899647
scalar tree_4_3_u06_r6_network.node[33].core_layer 	interests[33] 	12927
scalar tree_4_3_u06_r6_network.node[33].core_layer 	data[33] 	8742
scalar tree_4_3_u06_r6_network.node[33].content_store 	p_hit[33] 	0.32374100719424
scalar tree_4_3_u06_r6_network.node[33].content_store 	hits[33] 	4185
scalar tree_4_3_u06_r6_network.node[33].content_store 	misses[33] 	8742
scalar tree_4_3_u06_r6_network.node[33].content_store 	decision_yes[33] 	25
scalar tree_4_3_u06_r6_network.node[33].content_store 	decision_no[33] 	8717
scalar tree_4_3_u06_r6_network.node[33].content_store 	decision_ratio[33] 	0.0028597574925646
scalar tree_4_3_u06_r6_network.node[34].core_layer 	interests[34] 	12683
scalar tree_4_3_u06_r6_network.node[34].core_layer 	data[34] 	8691
scalar tree_4_3_u06_r6_network.node[34].content_store 	p_hit[34] 	0.31475203027675
scalar tree_4_3_u06_r6_network.node[34].content_store 	hits[34] 	3992
scalar tree_4_3_u06_r6_network.node[34].content_store 	misses[34] 	8691
scalar tree_4_3_u06_r6_network.node[34].content_store 	decision_yes[34] 	26
scalar tree_4_3_u06_r6_network.node[34].content_store 	decision_no[34] 	8665
scalar tree_4_3_u06_r6_network.node[34].content_store 	decision_ratio[34] 	0.0029916005062709
scalar tree_4_3_u06_r6_network.node[35].core_layer 	interests[35] 	12401
scalar tree_4_3_u06_r6_network.node[35].core_layer 	data[35] 	8797
scalar tree_4_3_u06_r6_network.node[35].content_store 	p_hit[35] 	0.29062172405451
scalar tree_4_3_u06_r6_network.node[35].content_store 	hits[35] 	3604
scalar tree_4_3_u06_r6_network.node[35].content_store 	misses[35] 	8797
scalar tree_4_3_u06_r6_network.node[35].content_store 	decision_yes[35] 	34
scalar tree_4_3_u06_r6_network.node[35].content_store 	decision_no[35] 	8763
scalar tree_4_3_u06_r6_network.node[35].content_store 	decision_ratio[35] 	0.0038649539615778
scalar tree_4_3_u06_r6_network.node[36].core_layer 	interests[36] 	12929
scalar tree_4_3_u06_r6_network.node[36].core_layer 	data[36] 	8885
scalar tree_4_3_u06_r6_network.node[36].content_store 	p_hit[36] 	0.31278521153995
scalar tree_4_3_u06_r6_network.node[36].content_store 	hits[36] 	4044
scalar tree_4_3_u06_r6_network.node[36].content_store 	misses[36] 	8885
scalar tree_4_3_u06_r6_network.node[36].content_store 	decision_yes[36] 	31
scalar tree_4_3_u06_r6_network.node[36].content_store 	decision_no[36] 	8854
scalar tree_4_3_u06_r6_network.node[36].content_store 	decision_ratio[36] 	0.0034890264490715
scalar tree_4_3_u06_r6_network.node[37].core_layer 	interests[37] 	12616
scalar tree_4_3_u06_r6_network.node[37].core_layer 	data[37] 	8850
scalar tree_4_3_u06_r6_network.node[37].content_store 	p_hit[37] 	0.29850982878884
scalar tree_4_3_u06_r6_network.node[37].content_store 	hits[37] 	3766
scalar tree_4_3_u06_r6_network.node[37].content_store 	misses[37] 	8850
scalar tree_4_3_u06_r6_network.node[37].content_store 	decision_yes[37] 	25
scalar tree_4_3_u06_r6_network.node[37].content_store 	decision_no[37] 	8825
scalar tree_4_3_u06_r6_network.node[37].content_store 	decision_ratio[37] 	0.0028248587570621
scalar tree_4_3_u06_r6_network.node[38].core_layer 	interests[38] 	12639
scalar tree_4_3_u06_r6_network.node[38].core_layer 	data[38] 	8844
scalar tree_4_3_u06_r6_network.node[38].content_store 	p_hit[38] 	0.30026109660574
scalar tree_4_3_u06_r6_network.node[38].content_store 	hits[38] 	3795
scalar tree_4_3_u06_r6_network.node[38].content_store 	misses[38] 	8844
scalar tree_4_3_u06_r6_network.node[38].content_store 	decision_yes[38] 	23
scalar tree_4_3_u06_r6_network.node[38].content_store 	decision_no[38] 	8821
scalar tree_4_3_u06_r6_network.node[38].content_store 	decision_ratio[38] 	0.0026006331976481
scalar tree_4_3_u06_r6_network.node[39].core_layer 	interests[39] 	12658
scalar tree_4_3_u06_r6_network.node[39].core_layer 	data[39] 	8835
scalar tree_4_3_u06_r6_network.node[39].content_store 	p_hit[39] 	0.30202243640386
scalar tree_4_3_u06_r6_network.node[39].content_store 	hits[39] 	3823
scalar tree_4_3_u06_r6_network.node[39].content_store 	misses[39] 	8835
scalar tree_4_3_u06_r6_network.node[39].content_store 	decision_yes[39] 	25
scalar tree_4_3_u06_r6_network.node[39].content_store 	decision_no[39] 	8810
scalar tree_4_3_u06_r6_network.node[39].content_store 	decision_ratio[39] 	0.0028296547821166
scalar tree_4_3_u06_r6_network.client[13] 	hdistance[13] 	2.634456928839
scalar tree_4_3_u06_r6_network.client[13] 	downloads[13] 	12015
scalar tree_4_3_u06_r6_network.client[13] 	avg_time[13] 	0.004123009872
scalar tree_4_3_u06_r6_network.client[14] 	hdistance[14] 	2.6299599866622
scalar tree_4_3_u06_r6_network.client[14] 	downloads[14] 	11996
scalar tree_4_3_u06_r6_network.client[14] 	avg_time[14] 	0.00412603901
scalar tree_4_3_u06_r6_network.client[15] 	hdistance[15] 	2.56525
scalar tree_4_3_u06_r6_network.client[15] 	downloads[15] 	12000
scalar tree_4_3_u06_r6_network.client[15] 	avg_time[15] 	0.004040330324
scalar tree_4_3_u06_r6_network.client[16] 	hdistance[16] 	2.5872739339638
scalar tree_4_3_u06_r6_network.client[16] 	downloads[16] 	12054
scalar tree_4_3_u06_r6_network.client[16] 	avg_time[16] 	0.004051432178
scalar tree_4_3_u06_r6_network.client[17] 	hdistance[17] 	2.6236232122308
scalar tree_4_3_u06_r6_network.client[17] 	downloads[17] 	12166
scalar tree_4_3_u06_r6_network.client[17] 	avg_time[17] 	0.00412345577
scalar tree_4_3_u06_r6_network.client[18] 	hdistance[18] 	2.6018988923128
scalar tree_4_3_u06_r6_network.client[18] 	downloads[18] 	12007
scalar tree_4_3_u06_r6_network.client[18] 	avg_time[18] 	0.004092276513
scalar tree_4_3_u06_r6_network.client[19] 	hdistance[19] 	2.5735281837161
scalar tree_4_3_u06_r6_network.client[19] 	downloads[19] 	11975
scalar tree_4_3_u06_r6_network.client[19] 	avg_time[19] 	0.004043921877
scalar tree_4_3_u06_r6_network.client[20] 	hdistance[20] 	2.5526118470382
scalar tree_4_3_u06_r6_network.client[20] 	downloads[20] 	12003
scalar tree_4_3_u06_r6_network.client[20] 	avg_time[20] 	0.004032895683
scalar tree_4_3_u06_r6_network.client[21] 	hdistance[21] 	2.6049464685866
scalar tree_4_3_u06_r6_network.client[21] 	downloads[21] 	12049
scalar tree_4_3_u06_r6_network.client[21] 	avg_time[21] 	0.004124820636
scalar tree_4_3_u06_r6_network.client[22] 	hdistance[22] 	2.6161047137768
scalar tree_4_3_u06_r6_network.client[22] 	downloads[22] 	12071
scalar tree_4_3_u06_r6_network.client[22] 	avg_time[22] 	0.004116971535
scalar tree_4_3_u06_r6_network.client[23] 	hdistance[23] 	2.6033769243503
scalar tree_4_3_u06_r6_network.client[23] 	downloads[23] 	12082
scalar tree_4_3_u06_r6_network.client[23] 	avg_time[23] 	0.004099318309
scalar tree_4_3_u06_r6_network.client[24] 	hdistance[24] 	2.6064667448484
scalar tree_4_3_u06_r6_network.client[24] 	downloads[24] 	11938
scalar tree_4_3_u06_r6_network.client[24] 	avg_time[24] 	0.004098170931
scalar tree_4_3_u06_r6_network.client[25] 	hdistance[25] 	2.5575968222443
scalar tree_4_3_u06_r6_network.client[25] 	downloads[25] 	12084
scalar tree_4_3_u06_r6_network.client[25] 	avg_time[25] 	0.004002636826
scalar tree_4_3_u06_r6_network.client[26] 	hdistance[26] 	2.6839191343008
scalar tree_4_3_u06_r6_network.client[26] 	downloads[26] 	11921
scalar tree_4_3_u06_r6_network.client[26] 	avg_time[26] 	0.004188068502
scalar tree_4_3_u06_r6_network.client[27] 	hdistance[27] 	2.6014492753623
scalar tree_4_3_u06_r6_network.client[27] 	downloads[27] 	12006
scalar tree_4_3_u06_r6_network.client[27] 	avg_time[27] 	0.004093874373
scalar tree_4_3_u06_r6_network.client[28] 	hdistance[28] 	2.5288525683789
scalar tree_4_3_u06_r6_network.client[28] 	downloads[28] 	11992
scalar tree_4_3_u06_r6_network.client[28] 	avg_time[28] 	0.003985320565
scalar tree_4_3_u06_r6_network.client[29] 	hdistance[29] 	2.5868198205752
scalar tree_4_3_u06_r6_network.client[29] 	downloads[29] 	11927
scalar tree_4_3_u06_r6_network.client[29] 	avg_time[29] 	0.00409060622
scalar tree_4_3_u06_r6_network.client[30] 	hdistance[30] 	2.6085261673717
scalar tree_4_3_u06_r6_network.client[30] 	downloads[30] 	12057
scalar tree_4_3_u06_r6_network.client[30] 	avg_time[30] 	0.004133363478
scalar tree_4_3_u06_r6_network.client[31] 	hdistance[31] 	2.6136591060707
scalar tree_4_3_u06_r6_network.client[31] 	downloads[31] 	11992
scalar tree_4_3_u06_r6_network.client[31] 	avg_time[31] 	0.004108777058
scalar tree_4_3_u06_r6_network.client[32] 	hdistance[32] 	2.5819209039548
scalar tree_4_3_u06_r6_network.client[32] 	downloads[32] 	12036
scalar tree_4_3_u06_r6_network.client[32] 	avg_time[32] 	0.00403804951
scalar tree_4_3_u06_r6_network.client[33] 	hdistance[33] 	2.5631753948462
scalar tree_4_3_u06_r6_network.client[33] 	downloads[33] 	12030
scalar tree_4_3_u06_r6_network.client[33] 	avg_time[33] 	0.004007312059
scalar tree_4_3_u06_r6_network.client[34] 	hdistance[34] 	2.5629437808036
scalar tree_4_3_u06_r6_network.client[34] 	downloads[34] 	11971
scalar tree_4_3_u06_r6_network.client[34] 	avg_time[34] 	0.003998493395
scalar tree_4_3_u06_r6_network.client[35] 	hdistance[35] 	2.6618579052702
scalar tree_4_3_u06_r6_network.client[35] 	downloads[35] 	11992
scalar tree_4_3_u06_r6_network.client[35] 	avg_time[35] 	0.004181117759
scalar tree_4_3_u06_r6_network.client[36] 	hdistance[36] 	2.5926538716082
scalar tree_4_3_u06_r6_network.client[36] 	downloads[36] 	12088
scalar tree_4_3_u06_r6_network.client[36] 	avg_time[36] 	0.004047151182
scalar tree_4_3_u06_r6_network.client[37] 	hdistance[37] 	2.6242608409987
scalar tree_4_3_u06_r6_network.client[37] 	downloads[37] 	12176
scalar tree_4_3_u06_r6_network.client[37] 	avg_time[37] 	0.004107497518
scalar tree_4_3_u06_r6_network.client[38] 	hdistance[38] 	2.6411871994694
scalar tree_4_3_u06_r6_network.client[38] 	downloads[38] 	12062
scalar tree_4_3_u06_r6_network.client[38] 	avg_time[38] 	0.004132810762
scalar tree_4_3_u06_r6_network.client[39] 	hdistance[39] 	2.6189344262295
scalar tree_4_3_u06_r6_network.client[39] 	downloads[39] 	12200
scalar tree_4_3_u06_r6_network.client[39] 	avg_time[39] 	0.004099505138
