version 2
run General-400-20160901-07:46:28-8710
attr a 0.9
attr cd ffc0.25
attr configname General
attr cr lru
attr datetime 20160901-07:46:28
attr experiment General
attr fsize 1
attr inifile hw5115/scenario_Y/omnetp.ini
attr iterationvars "$name=tree_4_3, $un=06, $rep=14, $cd=ffc0.25, $cr=lru, $fsize=1, $a=0.9, $sl=nrr, $ttl=1000, $variance=0.05"
attr iterationvars2 "$name=tree_4_3, $un=06, $rep=14, $cd=ffc0.25, $cr=lru, $fsize=1, $a=0.9, $sl=nrr, $ttl=1000, $variance=0.05, $repetition=0"
attr measurement "$name=tree_4_3, $un=06, $rep=14, $cd=ffc0.25, $cr=lru, $fsize=1, $a=0.9, $sl=nrr, $ttl=1000, $variance=0.05"
attr name tree_4_3
attr network networks.${name}_u${un}_r${rep}_network
attr processid 8710
attr rep 14
attr repetition 0
attr replication #0
attr resultdir results
attr runnumber 400
attr seedset 14
attr sl nrr
attr ttl 1000
attr un 06
attr variance 0.05

scalar . 	a 	0.9
scalar . 	fsize 	1
scalar . 	rep 	14
scalar . 	ttl 	1000
scalar . 	un 	06
scalar . 	variance 	0.05
scalar tree_4_3_u06_r14_network.content_distribution 	repo-0 	0
scalar tree_4_3_u06_r14_network.content_distribution 	client-0 	13
scalar tree_4_3_u06_r14_network.content_distribution 	client-1 	14
scalar tree_4_3_u06_r14_network.content_distribution 	client-2 	15
scalar tree_4_3_u06_r14_network.content_distribution 	client-3 	16
scalar tree_4_3_u06_r14_network.content_distribution 	client-4 	17
scalar tree_4_3_u06_r14_network.content_distribution 	client-5 	18
scalar tree_4_3_u06_r14_network.content_distribution 	client-6 	19
scalar tree_4_3_u06_r14_network.content_distribution 	client-7 	20
scalar tree_4_3_u06_r14_network.content_distribution 	client-8 	21
scalar tree_4_3_u06_r14_network.content_distribution 	client-9 	22
scalar tree_4_3_u06_r14_network.content_distribution 	client-10 	23
scalar tree_4_3_u06_r14_network.content_distribution 	client-11 	24
scalar tree_4_3_u06_r14_network.content_distribution 	client-12 	25
scalar tree_4_3_u06_r14_network.content_distribution 	client-13 	26
scalar tree_4_3_u06_r14_network.content_distribution 	client-14 	27
scalar tree_4_3_u06_r14_network.content_distribution 	client-15 	28
scalar tree_4_3_u06_r14_network.content_distribution 	client-16 	29
scalar tree_4_3_u06_r14_network.content_distribution 	client-17 	30
scalar tree_4_3_u06_r14_network.content_distribution 	client-18 	31
scalar tree_4_3_u06_r14_network.content_distribution 	client-19 	32
scalar tree_4_3_u06_r14_network.content_distribution 	client-20 	33
scalar tree_4_3_u06_r14_network.content_distribution 	client-21 	34
scalar tree_4_3_u06_r14_network.content_distribution 	client-22 	35
scalar tree_4_3_u06_r14_network.content_distribution 	client-23 	36
scalar tree_4_3_u06_r14_network.content_distribution 	client-24 	37
scalar tree_4_3_u06_r14_network.content_distribution 	client-25 	38
scalar tree_4_3_u06_r14_network.content_distribution 	client-26 	39
scalar tree_4_3_u06_r14_network.content_distribution 	repo-0_card 	100000
scalar tree_4_3_u06_r14_network.content_distribution 	repo-0_price 	0
scalar tree_4_3_u06_r14_network.statistics 	stabilization_time 	1765.9
scalar tree_4_3_u06_r14_network.statistics 	p_hit 	0.23932377159509
scalar tree_4_3_u06_r14_network.statistics 	interests 	24653.35
scalar tree_4_3_u06_r14_network.statistics 	data 	16555.625
scalar tree_4_3_u06_r14_network.statistics 	hdistance 	2.5986462807876
scalar tree_4_3_u06_r14_network.statistics 	avg_time 	0.004088872114
scalar tree_4_3_u06_r14_network.statistics 	downloads 	323910
scalar tree_4_3_u06_r14_network.statistics 	total_cost 	0
scalar tree_4_3_u06_r14_network.statistics 	total_replicas 	100000
scalar tree_4_3_u06_r14_network.statistics 	inner_hit 	0.44582754468834
scalar tree_4_3_u06_r14_network.node[0].core_layer 	interests[0] 	182508
scalar tree_4_3_u06_r14_network.node[0].core_layer 	repo_load[0] 	179502
scalar tree_4_3_u06_r14_network.node[0].core_layer 	data[0] 	0
scalar tree_4_3_u06_r14_network.node[0].core_layer 	repo_int[0] 	179502
scalar tree_4_3_u06_r14_network.node[0].content_store 	p_hit[0] 	0.016470510881715
scalar tree_4_3_u06_r14_network.node[0].content_store 	hits[0] 	3006
scalar tree_4_3_u06_r14_network.node[0].content_store 	misses[0] 	179502
scalar tree_4_3_u06_r14_network.node[0].content_store 	decision_yes[0] 	189
scalar tree_4_3_u06_r14_network.node[0].content_store 	decision_no[0] 	179313
scalar tree_4_3_u06_r14_network.node[0].content_store 	decision_ratio[0] 	0.0010529130594645
scalar tree_4_3_u06_r14_network.node[1].core_layer 	interests[1] 	116707
scalar tree_4_3_u06_r14_network.node[1].core_layer 	data[1] 	113629
scalar tree_4_3_u06_r14_network.node[1].content_store 	p_hit[1] 	0.026373739364391
scalar tree_4_3_u06_r14_network.node[1].content_store 	hits[1] 	3078
scalar tree_4_3_u06_r14_network.node[1].content_store 	misses[1] 	113629
scalar tree_4_3_u06_r14_network.node[1].content_store 	decision_yes[1] 	152
scalar tree_4_3_u06_r14_network.node[1].content_store 	decision_no[1] 	113477
scalar tree_4_3_u06_r14_network.node[1].content_store 	decision_ratio[1] 	0.001337686682097
scalar tree_4_3_u06_r14_network.node[2].core_layer 	interests[2] 	63712
scalar tree_4_3_u06_r14_network.node[2].core_layer 	data[2] 	60278
scalar tree_4_3_u06_r14_network.node[2].content_store 	p_hit[2] 	0.05389879457559
scalar tree_4_3_u06_r14_network.node[2].content_store 	hits[2] 	3434
scalar tree_4_3_u06_r14_network.node[2].content_store 	misses[2] 	60278
scalar tree_4_3_u06_r14_network.node[2].content_store 	decision_yes[2] 	90
scalar tree_4_3_u06_r14_network.node[2].content_store 	decision_no[2] 	60188
scalar tree_4_3_u06_r14_network.node[2].content_store 	decision_ratio[2] 	0.0014930820531537
scalar tree_4_3_u06_r14_network.node[3].core_layer 	interests[3] 	29671
scalar tree_4_3_u06_r14_network.node[3].core_layer 	data[3] 	25633
scalar tree_4_3_u06_r14_network.node[3].content_store 	p_hit[3] 	0.13609248087358
scalar tree_4_3_u06_r14_network.node[3].content_store 	hits[3] 	4038
scalar tree_4_3_u06_r14_network.node[3].content_store 	misses[3] 	25633
scalar tree_4_3_u06_r14_network.node[3].content_store 	decision_yes[3] 	71
scalar tree_4_3_u06_r14_network.node[3].content_store 	decision_no[3] 	25562
scalar tree_4_3_u06_r14_network.node[3].content_store 	decision_ratio[3] 	0.0027698669683611
scalar tree_4_3_u06_r14_network.node[4].core_layer 	interests[4] 	34244
scalar tree_4_3_u06_r14_network.node[4].core_layer 	data[4] 	31822
scalar tree_4_3_u06_r14_network.node[4].content_store 	p_hit[4] 	0.070756920920453
scalar tree_4_3_u06_r14_network.node[4].content_store 	hits[4] 	2423
scalar tree_4_3_u06_r14_network.node[4].content_store 	misses[4] 	31821
scalar tree_4_3_u06_r14_network.node[4].content_store 	decision_yes[4] 	66
scalar tree_4_3_u06_r14_network.node[4].content_store 	decision_no[4] 	31756
scalar tree_4_3_u06_r14_network.node[4].content_store 	decision_ratio[4] 	0.0020740368298661
scalar tree_4_3_u06_r14_network.node[5].core_layer 	interests[5] 	35633
scalar tree_4_3_u06_r14_network.node[5].core_layer 	data[5] 	32239
scalar tree_4_3_u06_r14_network.node[5].content_store 	p_hit[5] 	0.095220722364101
scalar tree_4_3_u06_r14_network.node[5].content_store 	hits[5] 	3393
scalar tree_4_3_u06_r14_network.node[5].content_store 	misses[5] 	32240
scalar tree_4_3_u06_r14_network.node[5].content_store 	decision_yes[5] 	69
scalar tree_4_3_u06_r14_network.node[5].content_store 	decision_no[5] 	32170
scalar tree_4_3_u06_r14_network.node[5].content_store 	decision_ratio[5] 	0.0021402648965539
scalar tree_4_3_u06_r14_network.node[6].core_layer 	interests[6] 	14646
scalar tree_4_3_u06_r14_network.node[6].core_layer 	data[6] 	10723
scalar tree_4_3_u06_r14_network.node[6].content_store 	p_hit[6] 	0.26785470435614
scalar tree_4_3_u06_r14_network.node[6].content_store 	hits[6] 	3923
scalar tree_4_3_u06_r14_network.node[6].content_store 	misses[6] 	10723
scalar tree_4_3_u06_r14_network.node[6].content_store 	decision_yes[6] 	63
scalar tree_4_3_u06_r14_network.node[6].content_store 	decision_no[6] 	10660
scalar tree_4_3_u06_r14_network.node[6].content_store 	decision_ratio[6] 	0.0058752214865243
scalar tree_4_3_u06_r14_network.node[7].core_layer 	interests[7] 	35818
scalar tree_4_3_u06_r14_network.node[7].core_layer 	data[7] 	32390
scalar tree_4_3_u06_r14_network.node[7].content_store 	p_hit[7] 	0.095678150650511
scalar tree_4_3_u06_r14_network.node[7].content_store 	hits[7] 	3427
scalar tree_4_3_u06_r14_network.node[7].content_store 	misses[7] 	32391
scalar tree_4_3_u06_r14_network.node[7].content_store 	decision_yes[7] 	64
scalar tree_4_3_u06_r14_network.node[7].content_store 	decision_no[7] 	32326
scalar tree_4_3_u06_r14_network.node[7].content_store 	decision_ratio[7] 	0.0019759184933621
scalar tree_4_3_u06_r14_network.node[8].core_layer 	interests[8] 	36130
scalar tree_4_3_u06_r14_network.node[8].core_layer 	data[8] 	33137
scalar tree_4_3_u06_r14_network.node[8].content_store 	p_hit[8] 	0.082839745363963
scalar tree_4_3_u06_r14_network.node[8].content_store 	hits[8] 	2993
scalar tree_4_3_u06_r14_network.node[8].content_store 	misses[8] 	33137
scalar tree_4_3_u06_r14_network.node[8].content_store 	decision_yes[8] 	60
scalar tree_4_3_u06_r14_network.node[8].content_store 	decision_no[8] 	33077
scalar tree_4_3_u06_r14_network.node[8].content_store 	decision_ratio[8] 	0.0018106648157649
scalar tree_4_3_u06_r14_network.node[9].core_layer 	interests[9] 	13449
scalar tree_4_3_u06_r14_network.node[9].core_layer 	data[9] 	9980
scalar tree_4_3_u06_r14_network.node[9].content_store 	p_hit[9] 	0.25793739311473
scalar tree_4_3_u06_r14_network.node[9].content_store 	hits[9] 	3469
scalar tree_4_3_u06_r14_network.node[9].content_store 	misses[9] 	9980
scalar tree_4_3_u06_r14_network.node[9].content_store 	decision_yes[9] 	69
scalar tree_4_3_u06_r14_network.node[9].content_store 	decision_no[9] 	9911
scalar tree_4_3_u06_r14_network.node[9].content_store 	decision_ratio[9] 	0.0069138276553106
scalar tree_4_3_u06_r14_network.node[10].core_layer 	interests[10] 	27423
scalar tree_4_3_u06_r14_network.node[10].core_layer 	data[10] 	24588
scalar tree_4_3_u06_r14_network.node[10].content_store 	p_hit[10] 	0.1033803741385
scalar tree_4_3_u06_r14_network.node[10].content_store 	hits[10] 	2835
scalar tree_4_3_u06_r14_network.node[10].content_store 	misses[10] 	24588
scalar tree_4_3_u06_r14_network.node[10].content_store 	decision_yes[10] 	63
scalar tree_4_3_u06_r14_network.node[10].content_store 	decision_no[10] 	24525
scalar tree_4_3_u06_r14_network.node[10].content_store 	decision_ratio[10] 	0.0025622254758419
scalar tree_4_3_u06_r14_network.node[11].core_layer 	interests[11] 	29390
scalar tree_4_3_u06_r14_network.node[11].core_layer 	data[11] 	25926
scalar tree_4_3_u06_r14_network.node[11].content_store 	p_hit[11] 	0.11782919360327
scalar tree_4_3_u06_r14_network.node[11].content_store 	hits[11] 	3463
scalar tree_4_3_u06_r14_network.node[11].content_store 	misses[11] 	25927
scalar tree_4_3_u06_r14_network.node[11].content_store 	decision_yes[11] 	80
scalar tree_4_3_u06_r14_network.node[11].content_store 	decision_no[11] 	25846
scalar tree_4_3_u06_r14_network.node[11].content_store 	decision_ratio[11] 	0.0030857054694129
scalar tree_4_3_u06_r14_network.node[12].core_layer 	interests[12] 	27111
scalar tree_4_3_u06_r14_network.node[12].core_layer 	data[12] 	25067
scalar tree_4_3_u06_r14_network.node[12].content_store 	p_hit[12] 	0.075393751613736
scalar tree_4_3_u06_r14_network.node[12].content_store 	hits[12] 	2044
scalar tree_4_3_u06_r14_network.node[12].content_store 	misses[12] 	25067
scalar tree_4_3_u06_r14_network.node[12].content_store 	decision_yes[12] 	79
scalar tree_4_3_u06_r14_network.node[12].content_store 	decision_no[12] 	24988
scalar tree_4_3_u06_r14_network.node[12].content_store 	decision_ratio[12] 	0.0031515538357203
scalar tree_4_3_u06_r14_network.node[13].core_layer 	interests[13] 	12358
scalar tree_4_3_u06_r14_network.node[13].core_layer 	data[13] 	8750
scalar tree_4_3_u06_r14_network.node[13].content_store 	p_hit[13] 	0.29195662728597
scalar tree_4_3_u06_r14_network.node[13].content_store 	hits[13] 	3608
scalar tree_4_3_u06_r14_network.node[13].content_store 	misses[13] 	8750
scalar tree_4_3_u06_r14_network.node[13].content_store 	decision_yes[13] 	34
scalar tree_4_3_u06_r14_network.node[13].content_store 	decision_no[13] 	8716
scalar tree_4_3_u06_r14_network.node[13].content_store 	decision_ratio[13] 	0.0038857142857143
scalar tree_4_3_u06_r14_network.node[14].core_layer 	interests[14] 	12450
scalar tree_4_3_u06_r14_network.node[14].core_layer 	data[14] 	8872
scalar tree_4_3_u06_r14_network.node[14].content_store 	p_hit[14] 	0.28746987951807
scalar tree_4_3_u06_r14_network.node[14].content_store 	hits[14] 	3579
scalar tree_4_3_u06_r14_network.node[14].content_store 	misses[14] 	8871
scalar tree_4_3_u06_r14_network.node[14].content_store 	decision_yes[14] 	31
scalar tree_4_3_u06_r14_network.node[14].content_store 	decision_no[14] 	8841
scalar tree_4_3_u06_r14_network.node[14].content_store 	decision_ratio[14] 	0.0034941388638413
scalar tree_4_3_u06_r14_network.node[15].core_layer 	interests[15] 	12699
scalar tree_4_3_u06_r14_network.node[15].core_layer 	data[15] 	8794
scalar tree_4_3_u06_r14_network.node[15].content_store 	p_hit[15] 	0.30750452791558
scalar tree_4_3_u06_r14_network.node[15].content_store 	hits[15] 	3905
scalar tree_4_3_u06_r14_network.node[15].content_store 	misses[15] 	8794
scalar tree_4_3_u06_r14_network.node[15].content_store 	decision_yes[15] 	25
scalar tree_4_3_u06_r14_network.node[15].content_store 	decision_no[15] 	8769
scalar tree_4_3_u06_r14_network.node[15].content_store 	decision_ratio[15] 	0.0028428473959518
scalar tree_4_3_u06_r14_network.node[16].core_layer 	interests[16] 	12443
scalar tree_4_3_u06_r14_network.node[16].core_layer 	data[16] 	8637
scalar tree_4_3_u06_r14_network.node[16].content_store 	p_hit[16] 	0.30579442256691
scalar tree_4_3_u06_r14_network.node[16].content_store 	hits[16] 	3805
scalar tree_4_3_u06_r14_network.node[16].content_store 	misses[16] 	8638
scalar tree_4_3_u06_r14_network.node[16].content_store 	decision_yes[16] 	20
scalar tree_4_3_u06_r14_network.node[16].content_store 	decision_no[16] 	8617
scalar tree_4_3_u06_r14_network.node[16].content_store 	decision_ratio[16] 	0.0023156188491374
scalar tree_4_3_u06_r14_network.node[17].core_layer 	interests[17] 	12363
scalar tree_4_3_u06_r14_network.node[17].core_layer 	data[17] 	8711
scalar tree_4_3_u06_r14_network.node[17].content_store 	p_hit[17] 	0.29539755722721
scalar tree_4_3_u06_r14_network.node[17].content_store 	hits[17] 	3652
scalar tree_4_3_u06_r14_network.node[17].content_store 	misses[17] 	8711
scalar tree_4_3_u06_r14_network.node[17].content_store 	decision_yes[17] 	29
scalar tree_4_3_u06_r14_network.node[17].content_store 	decision_no[17] 	8682
scalar tree_4_3_u06_r14_network.node[17].content_store 	decision_ratio[17] 	0.0033291240959706
scalar tree_4_3_u06_r14_network.node[18].core_layer 	interests[18] 	12763
scalar tree_4_3_u06_r14_network.node[18].core_layer 	data[18] 	8682
scalar tree_4_3_u06_r14_network.node[18].content_store 	p_hit[18] 	0.31975240930816
scalar tree_4_3_u06_r14_network.node[18].content_store 	hits[18] 	4081
scalar tree_4_3_u06_r14_network.node[18].content_store 	misses[18] 	8682
scalar tree_4_3_u06_r14_network.node[18].content_store 	decision_yes[18] 	22
scalar tree_4_3_u06_r14_network.node[18].content_store 	decision_no[18] 	8660
scalar tree_4_3_u06_r14_network.node[18].content_store 	decision_ratio[18] 	0.0025339783460032
scalar tree_4_3_u06_r14_network.node[19].core_layer 	interests[19] 	12878
scalar tree_4_3_u06_r14_network.node[19].core_layer 	data[19] 	8771
scalar tree_4_3_u06_r14_network.node[19].content_store 	p_hit[19] 	0.31891598074235
scalar tree_4_3_u06_r14_network.node[19].content_store 	hits[19] 	4107
scalar tree_4_3_u06_r14_network.node[19].content_store 	misses[19] 	8771
scalar tree_4_3_u06_r14_network.node[19].content_store 	decision_yes[19] 	28
scalar tree_4_3_u06_r14_network.node[19].content_store 	decision_no[19] 	8743
scalar tree_4_3_u06_r14_network.node[19].content_store 	decision_ratio[19] 	0.0031923383878691
scalar tree_4_3_u06_r14_network.node[20].core_layer 	interests[20] 	12747
scalar tree_4_3_u06_r14_network.node[20].core_layer 	data[20] 	8668
scalar tree_4_3_u06_r14_network.node[20].content_store 	p_hit[20] 	0.31999686200675
scalar tree_4_3_u06_r14_network.node[20].content_store 	hits[20] 	4079
scalar tree_4_3_u06_r14_network.node[20].content_store 	misses[20] 	8668
scalar tree_4_3_u06_r14_network.node[20].content_store 	decision_yes[20] 	26
scalar tree_4_3_u06_r14_network.node[20].content_store 	decision_no[20] 	8642
scalar tree_4_3_u06_r14_network.node[20].content_store 	decision_ratio[20] 	0.0029995385325335
scalar tree_4_3_u06_r14_network.node[21].core_layer 	interests[21] 	12641
scalar tree_4_3_u06_r14_network.node[21].core_layer 	data[21] 	9001
scalar tree_4_3_u06_r14_network.node[21].content_store 	p_hit[21] 	0.28795190253936
scalar tree_4_3_u06_r14_network.node[21].content_store 	hits[21] 	3640
scalar tree_4_3_u06_r14_network.node[21].content_store 	misses[21] 	9001
scalar tree_4_3_u06_r14_network.node[21].content_store 	decision_yes[21] 	35
scalar tree_4_3_u06_r14_network.node[21].content_store 	decision_no[21] 	8966
scalar tree_4_3_u06_r14_network.node[21].content_store 	decision_ratio[21] 	0.0038884568381291
scalar tree_4_3_u06_r14_network.node[22].core_layer 	interests[22] 	12615
scalar tree_4_3_u06_r14_network.node[22].core_layer 	data[22] 	8908
scalar tree_4_3_u06_r14_network.node[22].content_store 	p_hit[22] 	0.29377724930638
scalar tree_4_3_u06_r14_network.node[22].content_store 	hits[22] 	3706
scalar tree_4_3_u06_r14_network.node[22].content_store 	misses[22] 	8909
scalar tree_4_3_u06_r14_network.node[22].content_store 	decision_yes[22] 	32
scalar tree_4_3_u06_r14_network.node[22].content_store 	decision_no[22] 	8876
scalar tree_4_3_u06_r14_network.node[22].content_store 	decision_ratio[22] 	0.0035922766052986
scalar tree_4_3_u06_r14_network.node[23].core_layer 	interests[23] 	12973
scalar tree_4_3_u06_r14_network.node[23].core_layer 	data[23] 	8876
scalar tree_4_3_u06_r14_network.node[23].content_store 	p_hit[23] 	0.31580975872967
scalar tree_4_3_u06_r14_network.node[23].content_store 	hits[23] 	4097
scalar tree_4_3_u06_r14_network.node[23].content_store 	misses[23] 	8876
scalar tree_4_3_u06_r14_network.node[23].content_store 	decision_yes[23] 	42
scalar tree_4_3_u06_r14_network.node[23].content_store 	decision_no[23] 	8834
scalar tree_4_3_u06_r14_network.node[23].content_store 	decision_ratio[23] 	0.0047318611987382
scalar tree_4_3_u06_r14_network.node[24].core_layer 	interests[24] 	12825
scalar tree_4_3_u06_r14_network.node[24].core_layer 	data[24] 	8835
scalar tree_4_3_u06_r14_network.node[24].content_store 	p_hit[24] 	0.31111111111111
scalar tree_4_3_u06_r14_network.node[24].content_store 	hits[24] 	3990
scalar tree_4_3_u06_r14_network.node[24].content_store 	misses[24] 	8835
scalar tree_4_3_u06_r14_network.node[24].content_store 	decision_yes[24] 	33
scalar tree_4_3_u06_r14_network.node[24].content_store 	decision_no[24] 	8802
scalar tree_4_3_u06_r14_network.node[24].content_store 	decision_ratio[24] 	0.0037351443123939
scalar tree_4_3_u06_r14_network.node[25].core_layer 	interests[25] 	12456
scalar tree_4_3_u06_r14_network.node[25].core_layer 	data[25] 	8934
scalar tree_4_3_u06_r14_network.node[25].content_store 	p_hit[25] 	0.28275529865125
scalar tree_4_3_u06_r14_network.node[25].content_store 	hits[25] 	3522
scalar tree_4_3_u06_r14_network.node[25].content_store 	misses[25] 	8934
scalar tree_4_3_u06_r14_network.node[25].content_store 	decision_yes[25] 	38
scalar tree_4_3_u06_r14_network.node[25].content_store 	decision_no[25] 	8896
scalar tree_4_3_u06_r14_network.node[25].content_store 	decision_ratio[25] 	0.004253413924334
scalar tree_4_3_u06_r14_network.node[26].core_layer 	interests[26] 	12425
scalar tree_4_3_u06_r14_network.node[26].core_layer 	data[26] 	8718
scalar tree_4_3_u06_r14_network.node[26].content_store 	p_hit[26] 	0.29835010060362
scalar tree_4_3_u06_r14_network.node[26].content_store 	hits[26] 	3707
scalar tree_4_3_u06_r14_network.node[26].content_store 	misses[26] 	8718
scalar tree_4_3_u06_r14_network.node[26].content_store 	decision_yes[26] 	30
scalar tree_4_3_u06_r14_network.node[26].content_store 	decision_no[26] 	8688
scalar tree_4_3_u06_r14_network.node[26].content_store 	decision_ratio[26] 	0.0034411562284928
scalar tree_4_3_u06_r14_network.node[27].core_layer 	interests[27] 	12469
scalar tree_4_3_u06_r14_network.node[27].core_layer 	data[27] 	8688
scalar tree_4_3_u06_r14_network.node[27].content_store 	p_hit[27] 	0.30315181650493
scalar tree_4_3_u06_r14_network.node[27].content_store 	hits[27] 	3780
scalar tree_4_3_u06_r14_network.node[27].content_store 	misses[27] 	8689
scalar tree_4_3_u06_r14_network.node[27].content_store 	decision_yes[27] 	34
scalar tree_4_3_u06_r14_network.node[27].content_store 	decision_no[27] 	8654
scalar tree_4_3_u06_r14_network.node[27].content_store 	decision_ratio[27] 	0.0039134438305709
scalar tree_4_3_u06_r14_network.node[28].core_layer 	interests[28] 	12842
scalar tree_4_3_u06_r14_network.node[28].core_layer 	data[28] 	8782
scalar tree_4_3_u06_r14_network.node[28].content_store 	p_hit[28] 	0.31615013237813
scalar tree_4_3_u06_r14_network.node[28].content_store 	hits[28] 	4060
scalar tree_4_3_u06_r14_network.node[28].content_store 	misses[28] 	8782
scalar tree_4_3_u06_r14_network.node[28].content_store 	decision_yes[28] 	34
scalar tree_4_3_u06_r14_network.node[28].content_store 	decision_no[28] 	8748
scalar tree_4_3_u06_r14_network.node[28].content_store 	decision_ratio[28] 	0.0038715554543384
scalar tree_4_3_u06_r14_network.node[29].core_layer 	interests[29] 	13008
scalar tree_4_3_u06_r14_network.node[29].core_layer 	data[29] 	8970
scalar tree_4_3_u06_r14_network.node[29].content_store 	p_hit[29] 	0.31042435424354
scalar tree_4_3_u06_r14_network.node[29].content_store 	hits[29] 	4038
scalar tree_4_3_u06_r14_network.node[29].content_store 	misses[29] 	8970
scalar tree_4_3_u06_r14_network.node[29].content_store 	decision_yes[29] 	31
scalar tree_4_3_u06_r14_network.node[29].content_store 	decision_no[29] 	8939
scalar tree_4_3_u06_r14_network.node[29].content_store 	decision_ratio[29] 	0.0034559643255295
scalar tree_4_3_u06_r14_network.node[30].core_layer 	interests[30] 	12292
scalar tree_4_3_u06_r14_network.node[30].core_layer 	data[30] 	8730
scalar tree_4_3_u06_r14_network.node[30].content_store 	p_hit[30] 	0.28978197201432
scalar tree_4_3_u06_r14_network.node[30].content_store 	hits[30] 	3562
scalar tree_4_3_u06_r14_network.node[30].content_store 	misses[30] 	8730
scalar tree_4_3_u06_r14_network.node[30].content_store 	decision_yes[30] 	29
scalar tree_4_3_u06_r14_network.node[30].content_store 	decision_no[30] 	8701
scalar tree_4_3_u06_r14_network.node[30].content_store 	decision_ratio[30] 	0.0033218785796105
scalar tree_4_3_u06_r14_network.node[31].core_layer 	interests[31] 	12382
scalar tree_4_3_u06_r14_network.node[31].core_layer 	data[31] 	8756
scalar tree_4_3_u06_r14_network.node[31].content_store 	p_hit[31] 	0.29284445162332
scalar tree_4_3_u06_r14_network.node[31].content_store 	hits[31] 	3626
scalar tree_4_3_u06_r14_network.node[31].content_store 	misses[31] 	8756
scalar tree_4_3_u06_r14_network.node[31].content_store 	decision_yes[31] 	35
scalar tree_4_3_u06_r14_network.node[31].content_store 	decision_no[31] 	8721
scalar tree_4_3_u06_r14_network.node[31].content_store 	decision_ratio[31] 	0.0039972590223847
scalar tree_4_3_u06_r14_network.node[32].core_layer 	interests[32] 	12817
scalar tree_4_3_u06_r14_network.node[32].core_layer 	data[32] 	8638
scalar tree_4_3_u06_r14_network.node[32].content_store 	p_hit[32] 	0.32605133806663
scalar tree_4_3_u06_r14_network.node[32].content_store 	hits[32] 	4179
scalar tree_4_3_u06_r14_network.node[32].content_store 	misses[32] 	8638
scalar tree_4_3_u06_r14_network.node[32].content_store 	decision_yes[32] 	34
scalar tree_4_3_u06_r14_network.node[32].content_store 	decision_no[32] 	8604
scalar tree_4_3_u06_r14_network.node[32].content_store 	decision_ratio[32] 	0.0039360963185923
scalar tree_4_3_u06_r14_network.node[33].core_layer 	interests[33] 	12316
scalar tree_4_3_u06_r14_network.node[33].core_layer 	data[33] 	8666
scalar tree_4_3_u06_r14_network.node[33].content_store 	p_hit[33] 	0.29636245534264
scalar tree_4_3_u06_r14_network.node[33].content_store 	hits[33] 	3650
scalar tree_4_3_u06_r14_network.node[33].content_store 	misses[33] 	8666
scalar tree_4_3_u06_r14_network.node[33].content_store 	decision_yes[33] 	22
scalar tree_4_3_u06_r14_network.node[33].content_store 	decision_no[33] 	8644
scalar tree_4_3_u06_r14_network.node[33].content_store 	decision_ratio[33] 	0.0025386568197554
scalar tree_4_3_u06_r14_network.node[34].core_layer 	interests[34] 	12643
scalar tree_4_3_u06_r14_network.node[34].core_layer 	data[34] 	8859
scalar tree_4_3_u06_r14_network.node[34].content_store 	p_hit[34] 	0.29929605315194
scalar tree_4_3_u06_r14_network.node[34].content_store 	hits[34] 	3784
scalar tree_4_3_u06_r14_network.node[34].content_store 	misses[34] 	8859
scalar tree_4_3_u06_r14_network.node[34].content_store 	decision_yes[34] 	23
scalar tree_4_3_u06_r14_network.node[34].content_store 	decision_no[34] 	8836
scalar tree_4_3_u06_r14_network.node[34].content_store 	decision_ratio[34] 	0.0025962298227791
scalar tree_4_3_u06_r14_network.node[35].core_layer 	interests[35] 	12478
scalar tree_4_3_u06_r14_network.node[35].core_layer 	data[35] 	8692
scalar tree_4_3_u06_r14_network.node[35].content_store 	p_hit[35] 	0.30341400865523
scalar tree_4_3_u06_r14_network.node[35].content_store 	hits[35] 	3786
scalar tree_4_3_u06_r14_network.node[35].content_store 	misses[35] 	8692
scalar tree_4_3_u06_r14_network.node[35].content_store 	decision_yes[35] 	22
scalar tree_4_3_u06_r14_network.node[35].content_store 	decision_no[35] 	8670
scalar tree_4_3_u06_r14_network.node[35].content_store 	decision_ratio[35] 	0.0025310630464795
scalar tree_4_3_u06_r14_network.node[36].core_layer 	interests[36] 	12557
scalar tree_4_3_u06_r14_network.node[36].core_layer 	data[36] 	8758
scalar tree_4_3_u06_r14_network.node[36].content_store 	p_hit[36] 	0.30254041570439
scalar tree_4_3_u06_r14_network.node[36].content_store 	hits[36] 	3799
scalar tree_4_3_u06_r14_network.node[36].content_store 	misses[36] 	8758
scalar tree_4_3_u06_r14_network.node[36].content_store 	decision_yes[36] 	24
scalar tree_4_3_u06_r14_network.node[36].content_store 	decision_no[36] 	8734
scalar tree_4_3_u06_r14_network.node[36].content_store 	decision_ratio[36] 	0.0027403516784654
scalar tree_4_3_u06_r14_network.node[37].core_layer 	interests[37] 	12578
scalar tree_4_3_u06_r14_network.node[37].core_layer 	data[37] 	8751
scalar tree_4_3_u06_r14_network.node[37].content_store 	p_hit[37] 	0.30426140880903
scalar tree_4_3_u06_r14_network.node[37].content_store 	hits[37] 	3827
scalar tree_4_3_u06_r14_network.node[37].content_store 	misses[37] 	8751
scalar tree_4_3_u06_r14_network.node[37].content_store 	decision_yes[37] 	22
scalar tree_4_3_u06_r14_network.node[37].content_store 	decision_no[37] 	8729
scalar tree_4_3_u06_r14_network.node[37].content_store 	decision_ratio[37] 	0.0025139984001828
scalar tree_4_3_u06_r14_network.node[38].core_layer 	interests[38] 	12199
scalar tree_4_3_u06_r14_network.node[38].core_layer 	data[38] 	8565
scalar tree_4_3_u06_r14_network.node[38].content_store 	p_hit[38] 	0.29789326994016
scalar tree_4_3_u06_r14_network.node[38].content_store 	hits[38] 	3634
scalar tree_4_3_u06_r14_network.node[38].content_store 	misses[38] 	8565
scalar tree_4_3_u06_r14_network.node[38].content_store 	decision_yes[38] 	27
scalar tree_4_3_u06_r14_network.node[38].content_store 	decision_no[38] 	8538
scalar tree_4_3_u06_r14_network.node[38].content_store 	decision_ratio[38] 	0.0031523642732049
scalar tree_4_3_u06_r14_network.node[39].core_layer 	interests[39] 	12475
scalar tree_4_3_u06_r14_network.node[39].core_layer 	data[39] 	8801
scalar tree_4_3_u06_r14_network.node[39].content_store 	p_hit[39] 	0.29450901803607
scalar tree_4_3_u06_r14_network.node[39].content_store 	hits[39] 	3674
scalar tree_4_3_u06_r14_network.node[39].content_store 	misses[39] 	8801
scalar tree_4_3_u06_r14_network.node[39].content_store 	decision_yes[39] 	25
scalar tree_4_3_u06_r14_network.node[39].content_store 	decision_no[39] 	8776
scalar tree_4_3_u06_r14_network.node[39].content_store 	decision_ratio[39] 	0.0028405862970117
scalar tree_4_3_u06_r14_network.client[13] 	hdistance[13] 	2.6479519479436
scalar tree_4_3_u06_r14_network.client[13] 	downloads[13] 	11987
scalar tree_4_3_u06_r14_network.client[13] 	avg_time[13] 	0.004155536812
scalar tree_4_3_u06_r14_network.client[14] 	hdistance[14] 	2.6681840754842
scalar tree_4_3_u06_r14_network.client[14] 	downloads[14] 	12082
scalar tree_4_3_u06_r14_network.client[14] 	avg_time[14] 	0.004184155764
scalar tree_4_3_u06_r14_network.client[15] 	hdistance[15] 	2.56403383868
scalar tree_4_3_u06_r14_network.client[15] 	downloads[15] 	11939
scalar tree_4_3_u06_r14_network.client[15] 	avg_time[15] 	0.004030317786
scalar tree_4_3_u06_r14_network.client[16] 	hdistance[16] 	2.5797487311757
scalar tree_4_3_u06_r14_network.client[16] 	downloads[16] 	12019
scalar tree_4_3_u06_r14_network.client[16] 	avg_time[16] 	0.004077707294
scalar tree_4_3_u06_r14_network.client[17] 	hdistance[17] 	2.6159096654588
scalar tree_4_3_u06_r14_network.client[17] 	downloads[17] 	11867
scalar tree_4_3_u06_r14_network.client[17] 	avg_time[17] 	0.004143419956
scalar tree_4_3_u06_r14_network.client[18] 	hdistance[18] 	2.525341375555
scalar tree_4_3_u06_r14_network.client[18] 	downloads[18] 	11937
scalar tree_4_3_u06_r14_network.client[18] 	avg_time[18] 	0.003972854536
scalar tree_4_3_u06_r14_network.client[19] 	hdistance[19] 	2.533686475749
scalar tree_4_3_u06_r14_network.client[19] 	downloads[19] 	12082
scalar tree_4_3_u06_r14_network.client[19] 	avg_time[19] 	0.003976822016
scalar tree_4_3_u06_r14_network.client[20] 	hdistance[20] 	2.5186798458703
scalar tree_4_3_u06_r14_network.client[20] 	downloads[20] 	11938
scalar tree_4_3_u06_r14_network.client[20] 	avg_time[20] 	0.003966023863
scalar tree_4_3_u06_r14_network.client[21] 	hdistance[21] 	2.6092742264675
scalar tree_4_3_u06_r14_network.client[21] 	downloads[21] 	12249
scalar tree_4_3_u06_r14_network.client[21] 	avg_time[21] 	0.004116088047
scalar tree_4_3_u06_r14_network.client[22] 	hdistance[22] 	2.6261828355139
scalar tree_4_3_u06_r14_network.client[22] 	downloads[22] 	12153
scalar tree_4_3_u06_r14_network.client[22] 	avg_time[22] 	0.004152387334
scalar tree_4_3_u06_r14_network.client[23] 	hdistance[23] 	2.5848804147851
scalar tree_4_3_u06_r14_network.client[23] 	downloads[23] 	11958
scalar tree_4_3_u06_r14_network.client[23] 	avg_time[23] 	0.004063385572
scalar tree_4_3_u06_r14_network.client[24] 	hdistance[24] 	2.5291628640173
scalar tree_4_3_u06_r14_network.client[24] 	downloads[24] 	12053
scalar tree_4_3_u06_r14_network.client[24] 	avg_time[24] 	0.003988381625
scalar tree_4_3_u06_r14_network.client[25] 	hdistance[25] 	2.6811545841328
scalar tree_4_3_u06_r14_network.client[25] 	downloads[25] 	11987
scalar tree_4_3_u06_r14_network.client[25] 	avg_time[25] 	0.004201548673
scalar tree_4_3_u06_r14_network.client[26] 	hdistance[26] 	2.6401142761112
scalar tree_4_3_u06_r14_network.client[26] 	downloads[26] 	11901
scalar tree_4_3_u06_r14_network.client[26] 	avg_time[26] 	0.004136288095
scalar tree_4_3_u06_r14_network.client[27] 	hdistance[27] 	2.6227268918126
scalar tree_4_3_u06_r14_network.client[27] 	downloads[27] 	11933
scalar tree_4_3_u06_r14_network.client[27] 	avg_time[27] 	0.004099722169
scalar tree_4_3_u06_r14_network.client[28] 	hdistance[28] 	2.5400266844563
scalar tree_4_3_u06_r14_network.client[28] 	downloads[28] 	11992
scalar tree_4_3_u06_r14_network.client[28] 	avg_time[28] 	0.004002537875
scalar tree_4_3_u06_r14_network.client[29] 	hdistance[29] 	2.585779247623
scalar tree_4_3_u06_r14_network.client[29] 	downloads[29] 	12095
scalar tree_4_3_u06_r14_network.client[29] 	avg_time[29] 	0.00406117932
scalar tree_4_3_u06_r14_network.client[30] 	hdistance[30] 	2.6079416938929
scalar tree_4_3_u06_r14_network.client[30] 	downloads[30] 	11937
scalar tree_4_3_u06_r14_network.client[30] 	avg_time[30] 	0.004117782027
scalar tree_4_3_u06_r14_network.client[31] 	hdistance[31] 	2.6119228521333
scalar tree_4_3_u06_r14_network.client[31] 	downloads[31] 	11977
scalar tree_4_3_u06_r14_network.client[31] 	avg_time[31] 	0.004131248596
scalar tree_4_3_u06_r14_network.client[32] 	hdistance[32] 	2.5548650719333
scalar tree_4_3_u06_r14_network.client[32] 	downloads[32] 	11747
scalar tree_4_3_u06_r14_network.client[32] 	avg_time[32] 	0.004023151901
scalar tree_4_3_u06_r14_network.client[33] 	hdistance[33] 	2.6136153781583
scalar tree_4_3_u06_r14_network.client[33] 	downloads[33] 	11913
scalar tree_4_3_u06_r14_network.client[33] 	avg_time[33] 	0.004131953696
scalar tree_4_3_u06_r14_network.client[34] 	hdistance[34] 	2.5953599735799
scalar tree_4_3_u06_r14_network.client[34] 	downloads[34] 	12112
scalar tree_4_3_u06_r14_network.client[34] 	avg_time[34] 	0.004097255858
scalar tree_4_3_u06_r14_network.client[35] 	hdistance[35] 	2.5884749708964
scalar tree_4_3_u06_r14_network.client[35] 	downloads[35] 	12026
scalar tree_4_3_u06_r14_network.client[35] 	avg_time[35] 	0.004083430903
scalar tree_4_3_u06_r14_network.client[36] 	hdistance[36] 	2.5927182457592
scalar tree_4_3_u06_r14_network.client[36] 	downloads[36] 	12085
scalar tree_4_3_u06_r14_network.client[36] 	avg_time[36] 	0.004081420249
scalar tree_4_3_u06_r14_network.client[37] 	hdistance[37] 	2.638700049743
scalar tree_4_3_u06_r14_network.client[37] 	downloads[37] 	12062
scalar tree_4_3_u06_r14_network.client[37] 	avg_time[37] 	0.004125515105
scalar tree_4_3_u06_r14_network.client[38] 	hdistance[38] 	2.6406567366283
scalar tree_4_3_u06_r14_network.client[38] 	downloads[38] 	11816
scalar tree_4_3_u06_r14_network.client[38] 	avg_time[38] 	0.004133036975
scalar tree_4_3_u06_r14_network.client[39] 	hdistance[39] 	2.6463566277045
scalar tree_4_3_u06_r14_network.client[39] 	downloads[39] 	12063
scalar tree_4_3_u06_r14_network.client[39] 	avg_time[39] 	0.004146395048
