version 2
run General-35-20160819-15:19:24-23511
attr a 0.9
attr cd lce
attr configname General
attr cr lru
attr datetime 20160819-15:19:24
attr experiment General
attr fsize 1
attr inifile hw5115/scenario_A/NRR-LCE.ini
attr iterationvars "$name=tree_4_3, $un=01, $rep=16, $cd=lce, $cr=lru, $fsize=1, $a=0.9, $sl=nrr, $ttl=1000, $variance=0.05"
attr iterationvars2 "$name=tree_4_3, $un=01, $rep=16, $cd=lce, $cr=lru, $fsize=1, $a=0.9, $sl=nrr, $ttl=1000, $variance=0.05, $repetition=0"
attr measurement "$name=tree_4_3, $un=01, $rep=16, $cd=lce, $cr=lru, $fsize=1, $a=0.9, $sl=nrr, $ttl=1000, $variance=0.05"
attr name tree_4_3
attr network networks.${name}_u${un}_r${rep}_network
attr processid 23511
attr rep 16
attr repetition 0
attr replication #0
attr resultdir results
attr runnumber 35
attr seedset 16
attr sl nrr
attr ttl 1000
attr un 01
attr variance 0.05

scalar . 	a 	0.9
scalar . 	fsize 	1
scalar . 	rep 	16
scalar . 	ttl 	1000
scalar . 	un 	01
scalar . 	variance 	0.05
scalar tree_4_3_u01_r16_network.content_distribution 	repo-0 	0
scalar tree_4_3_u01_r16_network.content_distribution 	client-0 	13
scalar tree_4_3_u01_r16_network.content_distribution 	client-1 	14
scalar tree_4_3_u01_r16_network.content_distribution 	client-2 	15
scalar tree_4_3_u01_r16_network.content_distribution 	client-3 	16
scalar tree_4_3_u01_r16_network.content_distribution 	client-4 	17
scalar tree_4_3_u01_r16_network.content_distribution 	client-5 	18
scalar tree_4_3_u01_r16_network.content_distribution 	client-6 	19
scalar tree_4_3_u01_r16_network.content_distribution 	client-7 	20
scalar tree_4_3_u01_r16_network.content_distribution 	client-8 	21
scalar tree_4_3_u01_r16_network.content_distribution 	client-9 	22
scalar tree_4_3_u01_r16_network.content_distribution 	client-10 	23
scalar tree_4_3_u01_r16_network.content_distribution 	client-11 	24
scalar tree_4_3_u01_r16_network.content_distribution 	client-12 	25
scalar tree_4_3_u01_r16_network.content_distribution 	client-13 	26
scalar tree_4_3_u01_r16_network.content_distribution 	client-14 	27
scalar tree_4_3_u01_r16_network.content_distribution 	client-15 	28
scalar tree_4_3_u01_r16_network.content_distribution 	client-16 	29
scalar tree_4_3_u01_r16_network.content_distribution 	client-17 	30
scalar tree_4_3_u01_r16_network.content_distribution 	client-18 	31
scalar tree_4_3_u01_r16_network.content_distribution 	client-19 	32
scalar tree_4_3_u01_r16_network.content_distribution 	client-20 	33
scalar tree_4_3_u01_r16_network.content_distribution 	client-21 	34
scalar tree_4_3_u01_r16_network.content_distribution 	client-22 	35
scalar tree_4_3_u01_r16_network.content_distribution 	client-23 	36
scalar tree_4_3_u01_r16_network.content_distribution 	client-24 	37
scalar tree_4_3_u01_r16_network.content_distribution 	client-25 	38
scalar tree_4_3_u01_r16_network.content_distribution 	client-26 	39
scalar tree_4_3_u01_r16_network.content_distribution 	repo-0_card 	100000
scalar tree_4_3_u01_r16_network.content_distribution 	repo-0_price 	0
scalar tree_4_3_u01_r16_network.statistics 	stabilization_time 	482.9
scalar tree_4_3_u01_r16_network.statistics 	p_hit 	0.1703416771007
scalar tree_4_3_u01_r16_network.statistics 	interests 	27751.75
scalar tree_4_3_u01_r16_network.statistics 	data 	19660.05
scalar tree_4_3_u01_r16_network.statistics 	hdistance 	3.1138151283293
scalar tree_4_3_u01_r16_network.statistics 	avg_time 	0.004859327306
scalar tree_4_3_u01_r16_network.statistics 	downloads 	323663
scalar tree_4_3_u01_r16_network.statistics 	total_cost 	0
scalar tree_4_3_u01_r16_network.statistics 	total_replicas 	100000
scalar tree_4_3_u01_r16_network.statistics 	inner_hit 	0.31587793476548
scalar tree_4_3_u01_r16_network.node[0].core_layer 	interests[0] 	223279
scalar tree_4_3_u01_r16_network.node[0].core_layer 	repo_load[0] 	221425
scalar tree_4_3_u01_r16_network.node[0].core_layer 	data[0] 	0
scalar tree_4_3_u01_r16_network.node[0].core_layer 	repo_int[0] 	221425
scalar tree_4_3_u01_r16_network.node[0].content_store 	p_hit[0] 	0.0083035126456138
scalar tree_4_3_u01_r16_network.node[0].content_store 	hits[0] 	1854
scalar tree_4_3_u01_r16_network.node[0].content_store 	misses[0] 	221425
scalar tree_4_3_u01_r16_network.node[0].content_store 	decision_yes[0] 	221425
scalar tree_4_3_u01_r16_network.node[0].content_store 	decision_no[0] 	0
scalar tree_4_3_u01_r16_network.node[0].content_store 	decision_ratio[0] 	1
scalar tree_4_3_u01_r16_network.node[1].core_layer 	interests[1] 	81277
scalar tree_4_3_u01_r16_network.node[1].core_layer 	data[1] 	80345
scalar tree_4_3_u01_r16_network.node[1].content_store 	p_hit[1] 	0.011442351464744
scalar tree_4_3_u01_r16_network.node[1].content_store 	hits[1] 	930
scalar tree_4_3_u01_r16_network.node[1].content_store 	misses[1] 	80347
scalar tree_4_3_u01_r16_network.node[1].content_store 	decision_yes[1] 	80339
scalar tree_4_3_u01_r16_network.node[1].content_store 	decision_no[1] 	0
scalar tree_4_3_u01_r16_network.node[1].content_store 	decision_ratio[1] 	1
scalar tree_4_3_u01_r16_network.node[2].core_layer 	interests[2] 	82381
scalar tree_4_3_u01_r16_network.node[2].core_layer 	data[2] 	81296
scalar tree_4_3_u01_r16_network.node[2].content_store 	p_hit[2] 	0.013121957732972
scalar tree_4_3_u01_r16_network.node[2].content_store 	hits[2] 	1081
scalar tree_4_3_u01_r16_network.node[2].content_store 	misses[2] 	81300
scalar tree_4_3_u01_r16_network.node[2].content_store 	decision_yes[2] 	81288
scalar tree_4_3_u01_r16_network.node[2].content_store 	decision_no[2] 	0
scalar tree_4_3_u01_r16_network.node[2].content_store 	decision_ratio[2] 	1
scalar tree_4_3_u01_r16_network.node[3].core_layer 	interests[3] 	80066
scalar tree_4_3_u01_r16_network.node[3].core_layer 	data[3] 	79289
scalar tree_4_3_u01_r16_network.node[3].content_store 	p_hit[3] 	0.0096920040966203
scalar tree_4_3_u01_r16_network.node[3].content_store 	hits[3] 	776
scalar tree_4_3_u01_r16_network.node[3].content_store 	misses[3] 	79290
scalar tree_4_3_u01_r16_network.node[3].content_store 	decision_yes[3] 	79283
scalar tree_4_3_u01_r16_network.node[3].content_store 	decision_no[3] 	0
scalar tree_4_3_u01_r16_network.node[3].content_store 	decision_ratio[3] 	1
scalar tree_4_3_u01_r16_network.node[4].core_layer 	interests[4] 	32347
scalar tree_4_3_u01_r16_network.node[4].core_layer 	data[4] 	30794
scalar tree_4_3_u01_r16_network.node[4].content_store 	p_hit[4] 	0.047979719912202
scalar tree_4_3_u01_r16_network.node[4].content_store 	hits[4] 	1552
scalar tree_4_3_u01_r16_network.node[4].content_store 	misses[4] 	30795
scalar tree_4_3_u01_r16_network.node[4].content_store 	decision_yes[4] 	30793
scalar tree_4_3_u01_r16_network.node[4].content_store 	decision_no[4] 	0
scalar tree_4_3_u01_r16_network.node[4].content_store 	decision_ratio[4] 	1
scalar tree_4_3_u01_r16_network.node[5].core_layer 	interests[5] 	31093
scalar tree_4_3_u01_r16_network.node[5].core_layer 	data[5] 	29804
scalar tree_4_3_u01_r16_network.node[5].content_store 	p_hit[5] 	0.041456276332293
scalar tree_4_3_u01_r16_network.node[5].content_store 	hits[5] 	1289
scalar tree_4_3_u01_r16_network.node[5].content_store 	misses[5] 	29804
scalar tree_4_3_u01_r16_network.node[5].content_store 	decision_yes[5] 	29803
scalar tree_4_3_u01_r16_network.node[5].content_store 	decision_no[5] 	0
scalar tree_4_3_u01_r16_network.node[5].content_store 	decision_ratio[5] 	1
scalar tree_4_3_u01_r16_network.node[6].core_layer 	interests[6] 	32722
scalar tree_4_3_u01_r16_network.node[6].core_layer 	data[6] 	30772
scalar tree_4_3_u01_r16_network.node[6].content_store 	p_hit[6] 	0.059470692500458
scalar tree_4_3_u01_r16_network.node[6].content_store 	hits[6] 	1946
scalar tree_4_3_u01_r16_network.node[6].content_store 	misses[6] 	30776
scalar tree_4_3_u01_r16_network.node[6].content_store 	decision_yes[6] 	30770
scalar tree_4_3_u01_r16_network.node[6].content_store 	decision_no[6] 	0
scalar tree_4_3_u01_r16_network.node[6].content_store 	decision_ratio[6] 	1
scalar tree_4_3_u01_r16_network.node[7].core_layer 	interests[7] 	32577
scalar tree_4_3_u01_r16_network.node[7].core_layer 	data[7] 	30833
scalar tree_4_3_u01_r16_network.node[7].content_store 	p_hit[7] 	0.053411916382724
scalar tree_4_3_u01_r16_network.node[7].content_store 	hits[7] 	1740
scalar tree_4_3_u01_r16_network.node[7].content_store 	misses[7] 	30837
scalar tree_4_3_u01_r16_network.node[7].content_store 	decision_yes[7] 	30831
scalar tree_4_3_u01_r16_network.node[7].content_store 	decision_no[7] 	0
scalar tree_4_3_u01_r16_network.node[7].content_store 	decision_ratio[7] 	1
scalar tree_4_3_u01_r16_network.node[8].core_layer 	interests[8] 	32352
scalar tree_4_3_u01_r16_network.node[8].core_layer 	data[8] 	30678
scalar tree_4_3_u01_r16_network.node[8].content_store 	p_hit[8] 	0.051588773491592
scalar tree_4_3_u01_r16_network.node[8].content_store 	hits[8] 	1669
scalar tree_4_3_u01_r16_network.node[8].content_store 	misses[8] 	30683
scalar tree_4_3_u01_r16_network.node[8].content_store 	decision_yes[8] 	30676
scalar tree_4_3_u01_r16_network.node[8].content_store 	decision_no[8] 	0
scalar tree_4_3_u01_r16_network.node[8].content_store 	decision_ratio[8] 	1
scalar tree_4_3_u01_r16_network.node[9].core_layer 	interests[9] 	32456
scalar tree_4_3_u01_r16_network.node[9].core_layer 	data[9] 	30806
scalar tree_4_3_u01_r16_network.node[9].content_store 	p_hit[9] 	0.050838057678087
scalar tree_4_3_u01_r16_network.node[9].content_store 	hits[9] 	1650
scalar tree_4_3_u01_r16_network.node[9].content_store 	misses[9] 	30806
scalar tree_4_3_u01_r16_network.node[9].content_store 	decision_yes[9] 	30805
scalar tree_4_3_u01_r16_network.node[9].content_store 	decision_no[9] 	0
scalar tree_4_3_u01_r16_network.node[9].content_store 	decision_ratio[9] 	1
scalar tree_4_3_u01_r16_network.node[10].core_layer 	interests[10] 	30840
scalar tree_4_3_u01_r16_network.node[10].core_layer 	data[10] 	29661
scalar tree_4_3_u01_r16_network.node[10].content_store 	p_hit[10] 	0.038164721141375
scalar tree_4_3_u01_r16_network.node[10].content_store 	hits[10] 	1177
scalar tree_4_3_u01_r16_network.node[10].content_store 	misses[10] 	29663
scalar tree_4_3_u01_r16_network.node[10].content_store 	decision_yes[10] 	29658
scalar tree_4_3_u01_r16_network.node[10].content_store 	decision_no[10] 	0
scalar tree_4_3_u01_r16_network.node[10].content_store 	decision_ratio[10] 	1
scalar tree_4_3_u01_r16_network.node[11].core_layer 	interests[11] 	42264
scalar tree_4_3_u01_r16_network.node[11].core_layer 	data[11] 	40214
scalar tree_4_3_u01_r16_network.node[11].content_store 	p_hit[11] 	0.048433655120197
scalar tree_4_3_u01_r16_network.node[11].content_store 	hits[11] 	2047
scalar tree_4_3_u01_r16_network.node[11].content_store 	misses[11] 	40217
scalar tree_4_3_u01_r16_network.node[11].content_store 	decision_yes[11] 	40211
scalar tree_4_3_u01_r16_network.node[11].content_store 	decision_no[11] 	0
scalar tree_4_3_u01_r16_network.node[11].content_store 	decision_ratio[11] 	1
scalar tree_4_3_u01_r16_network.node[12].core_layer 	interests[12] 	22193
scalar tree_4_3_u01_r16_network.node[12].core_layer 	data[12] 	20717
scalar tree_4_3_u01_r16_network.node[12].content_store 	p_hit[12] 	0.06646239805344
scalar tree_4_3_u01_r16_network.node[12].content_store 	hits[12] 	1475
scalar tree_4_3_u01_r16_network.node[12].content_store 	misses[12] 	20718
scalar tree_4_3_u01_r16_network.node[12].content_store 	decision_yes[12] 	20716
scalar tree_4_3_u01_r16_network.node[12].content_store 	decision_no[12] 	0
scalar tree_4_3_u01_r16_network.node[12].content_store 	decision_ratio[12] 	1
scalar tree_4_3_u01_r16_network.node[13].core_layer 	interests[13] 	13023
scalar tree_4_3_u01_r16_network.node[13].core_layer 	data[13] 	10051
scalar tree_4_3_u01_r16_network.node[13].content_store 	p_hit[13] 	0.2282116255855
scalar tree_4_3_u01_r16_network.node[13].content_store 	hits[13] 	2972
scalar tree_4_3_u01_r16_network.node[13].content_store 	misses[13] 	10051
scalar tree_4_3_u01_r16_network.node[13].content_store 	decision_yes[13] 	10051
scalar tree_4_3_u01_r16_network.node[13].content_store 	decision_no[13] 	0
scalar tree_4_3_u01_r16_network.node[13].content_store 	decision_ratio[13] 	1
scalar tree_4_3_u01_r16_network.node[14].core_layer 	interests[14] 	13155
scalar tree_4_3_u01_r16_network.node[14].core_layer 	data[14] 	10091
scalar tree_4_3_u01_r16_network.node[14].content_store 	p_hit[14] 	0.2329152413531
scalar tree_4_3_u01_r16_network.node[14].content_store 	hits[14] 	3064
scalar tree_4_3_u01_r16_network.node[14].content_store 	misses[14] 	10091
scalar tree_4_3_u01_r16_network.node[14].content_store 	decision_yes[14] 	10091
scalar tree_4_3_u01_r16_network.node[14].content_store 	decision_no[14] 	0
scalar tree_4_3_u01_r16_network.node[14].content_store 	decision_ratio[14] 	1
scalar tree_4_3_u01_r16_network.node[15].core_layer 	interests[15] 	13083
scalar tree_4_3_u01_r16_network.node[15].core_layer 	data[15] 	10063
scalar tree_4_3_u01_r16_network.node[15].content_store 	p_hit[15] 	0.23083390659635
scalar tree_4_3_u01_r16_network.node[15].content_store 	hits[15] 	3020
scalar tree_4_3_u01_r16_network.node[15].content_store 	misses[15] 	10063
scalar tree_4_3_u01_r16_network.node[15].content_store 	decision_yes[15] 	10063
scalar tree_4_3_u01_r16_network.node[15].content_store 	decision_no[15] 	0
scalar tree_4_3_u01_r16_network.node[15].content_store 	decision_ratio[15] 	1
scalar tree_4_3_u01_r16_network.node[16].core_layer 	interests[16] 	12818
scalar tree_4_3_u01_r16_network.node[16].core_layer 	data[16] 	10105
scalar tree_4_3_u01_r16_network.node[16].content_store 	p_hit[16] 	0.21165548447496
scalar tree_4_3_u01_r16_network.node[16].content_store 	hits[16] 	2713
scalar tree_4_3_u01_r16_network.node[16].content_store 	misses[16] 	10105
scalar tree_4_3_u01_r16_network.node[16].content_store 	decision_yes[16] 	10105
scalar tree_4_3_u01_r16_network.node[16].content_store 	decision_no[16] 	0
scalar tree_4_3_u01_r16_network.node[16].content_store 	decision_ratio[16] 	1
scalar tree_4_3_u01_r16_network.node[17].core_layer 	interests[17] 	12938
scalar tree_4_3_u01_r16_network.node[17].core_layer 	data[17] 	10064
scalar tree_4_3_u01_r16_network.node[17].content_store 	p_hit[17] 	0.22213634255681
scalar tree_4_3_u01_r16_network.node[17].content_store 	hits[17] 	2874
scalar tree_4_3_u01_r16_network.node[17].content_store 	misses[17] 	10064
scalar tree_4_3_u01_r16_network.node[17].content_store 	decision_yes[17] 	10064
scalar tree_4_3_u01_r16_network.node[17].content_store 	decision_no[17] 	0
scalar tree_4_3_u01_r16_network.node[17].content_store 	decision_ratio[17] 	1
scalar tree_4_3_u01_r16_network.node[18].core_layer 	interests[18] 	14016
scalar tree_4_3_u01_r16_network.node[18].core_layer 	data[18] 	9994
scalar tree_4_3_u01_r16_network.node[18].content_store 	p_hit[18] 	0.28702910958904
scalar tree_4_3_u01_r16_network.node[18].content_store 	hits[18] 	4023
scalar tree_4_3_u01_r16_network.node[18].content_store 	misses[18] 	9993
scalar tree_4_3_u01_r16_network.node[18].content_store 	decision_yes[18] 	9994
scalar tree_4_3_u01_r16_network.node[18].content_store 	decision_no[18] 	0
scalar tree_4_3_u01_r16_network.node[18].content_store 	decision_ratio[18] 	1
scalar tree_4_3_u01_r16_network.node[19].core_layer 	interests[19] 	12890
scalar tree_4_3_u01_r16_network.node[19].core_layer 	data[19] 	9981
scalar tree_4_3_u01_r16_network.node[19].content_store 	p_hit[19] 	0.2256012412723
scalar tree_4_3_u01_r16_network.node[19].content_store 	hits[19] 	2908
scalar tree_4_3_u01_r16_network.node[19].content_store 	misses[19] 	9982
scalar tree_4_3_u01_r16_network.node[19].content_store 	decision_yes[19] 	9981
scalar tree_4_3_u01_r16_network.node[19].content_store 	decision_no[19] 	0
scalar tree_4_3_u01_r16_network.node[19].content_store 	decision_ratio[19] 	1
scalar tree_4_3_u01_r16_network.node[20].core_layer 	interests[20] 	12846
scalar tree_4_3_u01_r16_network.node[20].core_layer 	data[20] 	9910
scalar tree_4_3_u01_r16_network.node[20].content_store 	p_hit[20] 	0.22855363537288
scalar tree_4_3_u01_r16_network.node[20].content_store 	hits[20] 	2936
scalar tree_4_3_u01_r16_network.node[20].content_store 	misses[20] 	9910
scalar tree_4_3_u01_r16_network.node[20].content_store 	decision_yes[20] 	9910
scalar tree_4_3_u01_r16_network.node[20].content_store 	decision_no[20] 	0
scalar tree_4_3_u01_r16_network.node[20].content_store 	decision_ratio[20] 	1
scalar tree_4_3_u01_r16_network.node[21].core_layer 	interests[21] 	13069
scalar tree_4_3_u01_r16_network.node[21].core_layer 	data[21] 	10033
scalar tree_4_3_u01_r16_network.node[21].content_store 	p_hit[21] 	0.23230545565843
scalar tree_4_3_u01_r16_network.node[21].content_store 	hits[21] 	3036
scalar tree_4_3_u01_r16_network.node[21].content_store 	misses[21] 	10033
scalar tree_4_3_u01_r16_network.node[21].content_store 	decision_yes[21] 	10033
scalar tree_4_3_u01_r16_network.node[21].content_store 	decision_no[21] 	0
scalar tree_4_3_u01_r16_network.node[21].content_store 	decision_ratio[21] 	1
scalar tree_4_3_u01_r16_network.node[22].core_layer 	interests[22] 	13211
scalar tree_4_3_u01_r16_network.node[22].core_layer 	data[22] 	10180
scalar tree_4_3_u01_r16_network.node[22].content_store 	p_hit[22] 	0.2293543259405
scalar tree_4_3_u01_r16_network.node[22].content_store 	hits[22] 	3030
scalar tree_4_3_u01_r16_network.node[22].content_store 	misses[22] 	10181
scalar tree_4_3_u01_r16_network.node[22].content_store 	decision_yes[22] 	10180
scalar tree_4_3_u01_r16_network.node[22].content_store 	decision_no[22] 	0
scalar tree_4_3_u01_r16_network.node[22].content_store 	decision_ratio[22] 	1
scalar tree_4_3_u01_r16_network.node[23].core_layer 	interests[23] 	12974
scalar tree_4_3_u01_r16_network.node[23].core_layer 	data[23] 	10000
scalar tree_4_3_u01_r16_network.node[23].content_store 	p_hit[23] 	0.22922768614151
scalar tree_4_3_u01_r16_network.node[23].content_store 	hits[23] 	2974
scalar tree_4_3_u01_r16_network.node[23].content_store 	misses[23] 	10000
scalar tree_4_3_u01_r16_network.node[23].content_store 	decision_yes[23] 	10000
scalar tree_4_3_u01_r16_network.node[23].content_store 	decision_no[23] 	0
scalar tree_4_3_u01_r16_network.node[23].content_store 	decision_ratio[23] 	1
scalar tree_4_3_u01_r16_network.node[24].core_layer 	interests[24] 	13063
scalar tree_4_3_u01_r16_network.node[24].core_layer 	data[24] 	9973
scalar tree_4_3_u01_r16_network.node[24].content_store 	p_hit[24] 	0.23639286534487
scalar tree_4_3_u01_r16_network.node[24].content_store 	hits[24] 	3088
scalar tree_4_3_u01_r16_network.node[24].content_store 	misses[24] 	9975
scalar tree_4_3_u01_r16_network.node[24].content_store 	decision_yes[24] 	9973
scalar tree_4_3_u01_r16_network.node[24].content_store 	decision_no[24] 	0
scalar tree_4_3_u01_r16_network.node[24].content_store 	decision_ratio[24] 	1
scalar tree_4_3_u01_r16_network.node[25].core_layer 	interests[25] 	13114
scalar tree_4_3_u01_r16_network.node[25].core_layer 	data[25] 	10146
scalar tree_4_3_u01_r16_network.node[25].content_store 	p_hit[25] 	0.22624675918865
scalar tree_4_3_u01_r16_network.node[25].content_store 	hits[25] 	2967
scalar tree_4_3_u01_r16_network.node[25].content_store 	misses[25] 	10147
scalar tree_4_3_u01_r16_network.node[25].content_store 	decision_yes[25] 	10146
scalar tree_4_3_u01_r16_network.node[25].content_store 	decision_no[25] 	0
scalar tree_4_3_u01_r16_network.node[25].content_store 	decision_ratio[25] 	1
scalar tree_4_3_u01_r16_network.node[26].core_layer 	interests[26] 	12811
scalar tree_4_3_u01_r16_network.node[26].core_layer 	data[26] 	9812
scalar tree_4_3_u01_r16_network.node[26].content_store 	p_hit[26] 	0.23409569900866
scalar tree_4_3_u01_r16_network.node[26].content_store 	hits[26] 	2999
scalar tree_4_3_u01_r16_network.node[26].content_store 	misses[26] 	9812
scalar tree_4_3_u01_r16_network.node[26].content_store 	decision_yes[26] 	9812
scalar tree_4_3_u01_r16_network.node[26].content_store 	decision_no[26] 	0
scalar tree_4_3_u01_r16_network.node[26].content_store 	decision_ratio[26] 	1
scalar tree_4_3_u01_r16_network.node[27].core_layer 	interests[27] 	13067
scalar tree_4_3_u01_r16_network.node[27].core_layer 	data[27] 	10038
scalar tree_4_3_u01_r16_network.node[27].content_store 	p_hit[27] 	0.231805311089
scalar tree_4_3_u01_r16_network.node[27].content_store 	hits[27] 	3029
scalar tree_4_3_u01_r16_network.node[27].content_store 	misses[27] 	10038
scalar tree_4_3_u01_r16_network.node[27].content_store 	decision_yes[27] 	10038
scalar tree_4_3_u01_r16_network.node[27].content_store 	decision_no[27] 	0
scalar tree_4_3_u01_r16_network.node[27].content_store 	decision_ratio[27] 	1
scalar tree_4_3_u01_r16_network.node[28].core_layer 	interests[28] 	13075
scalar tree_4_3_u01_r16_network.node[28].core_layer 	data[28] 	10011
scalar tree_4_3_u01_r16_network.node[28].content_store 	p_hit[28] 	0.23434034416826
scalar tree_4_3_u01_r16_network.node[28].content_store 	hits[28] 	3064
scalar tree_4_3_u01_r16_network.node[28].content_store 	misses[28] 	10011
scalar tree_4_3_u01_r16_network.node[28].content_store 	decision_yes[28] 	10011
scalar tree_4_3_u01_r16_network.node[28].content_store 	decision_no[28] 	0
scalar tree_4_3_u01_r16_network.node[28].content_store 	decision_ratio[28] 	1
scalar tree_4_3_u01_r16_network.node[29].core_layer 	interests[29] 	13037
scalar tree_4_3_u01_r16_network.node[29].core_layer 	data[29] 	10055
scalar tree_4_3_u01_r16_network.node[29].content_store 	p_hit[29] 	0.22873360435683
scalar tree_4_3_u01_r16_network.node[29].content_store 	hits[29] 	2982
scalar tree_4_3_u01_r16_network.node[29].content_store 	misses[29] 	10055
scalar tree_4_3_u01_r16_network.node[29].content_store 	decision_yes[29] 	10055
scalar tree_4_3_u01_r16_network.node[29].content_store 	decision_no[29] 	0
scalar tree_4_3_u01_r16_network.node[29].content_store 	decision_ratio[29] 	1
scalar tree_4_3_u01_r16_network.node[30].core_layer 	interests[30] 	13200
scalar tree_4_3_u01_r16_network.node[30].core_layer 	data[30] 	10032
scalar tree_4_3_u01_r16_network.node[30].content_store 	p_hit[30] 	0.24
scalar tree_4_3_u01_r16_network.node[30].content_store 	hits[30] 	3168
scalar tree_4_3_u01_r16_network.node[30].content_store 	misses[30] 	10032
scalar tree_4_3_u01_r16_network.node[30].content_store 	decision_yes[30] 	10032
scalar tree_4_3_u01_r16_network.node[30].content_store 	decision_no[30] 	0
scalar tree_4_3_u01_r16_network.node[30].content_store 	decision_ratio[30] 	1
scalar tree_4_3_u01_r16_network.node[31].core_layer 	interests[31] 	12696
scalar tree_4_3_u01_r16_network.node[31].core_layer 	data[31] 	9978
scalar tree_4_3_u01_r16_network.node[31].content_store 	p_hit[31] 	0.21400441083806
scalar tree_4_3_u01_r16_network.node[31].content_store 	hits[31] 	2717
scalar tree_4_3_u01_r16_network.node[31].content_store 	misses[31] 	9979
scalar tree_4_3_u01_r16_network.node[31].content_store 	decision_yes[31] 	9978
scalar tree_4_3_u01_r16_network.node[31].content_store 	decision_no[31] 	0
scalar tree_4_3_u01_r16_network.node[31].content_store 	decision_ratio[31] 	1
scalar tree_4_3_u01_r16_network.node[32].core_layer 	interests[32] 	14303
scalar tree_4_3_u01_r16_network.node[32].core_layer 	data[32] 	10189
scalar tree_4_3_u01_r16_network.node[32].content_store 	p_hit[32] 	0.28763196532196
scalar tree_4_3_u01_r16_network.node[32].content_store 	hits[32] 	4114
scalar tree_4_3_u01_r16_network.node[32].content_store 	misses[32] 	10189
scalar tree_4_3_u01_r16_network.node[32].content_store 	decision_yes[32] 	10189
scalar tree_4_3_u01_r16_network.node[32].content_store 	decision_no[32] 	0
scalar tree_4_3_u01_r16_network.node[32].content_store 	decision_ratio[32] 	1
scalar tree_4_3_u01_r16_network.node[33].core_layer 	interests[33] 	13075
scalar tree_4_3_u01_r16_network.node[33].core_layer 	data[33] 	10262
scalar tree_4_3_u01_r16_network.node[33].content_store 	p_hit[33] 	0.21499043977055
scalar tree_4_3_u01_r16_network.node[33].content_store 	hits[33] 	2811
scalar tree_4_3_u01_r16_network.node[33].content_store 	misses[33] 	10264
scalar tree_4_3_u01_r16_network.node[33].content_store 	decision_yes[33] 	10262
scalar tree_4_3_u01_r16_network.node[33].content_store 	decision_no[33] 	0
scalar tree_4_3_u01_r16_network.node[33].content_store 	decision_ratio[33] 	1
scalar tree_4_3_u01_r16_network.node[34].core_layer 	interests[34] 	13191
scalar tree_4_3_u01_r16_network.node[34].core_layer 	data[34] 	10126
scalar tree_4_3_u01_r16_network.node[34].content_store 	p_hit[34] 	0.23235539382913
scalar tree_4_3_u01_r16_network.node[34].content_store 	hits[34] 	3065
scalar tree_4_3_u01_r16_network.node[34].content_store 	misses[34] 	10126
scalar tree_4_3_u01_r16_network.node[34].content_store 	decision_yes[34] 	10126
scalar tree_4_3_u01_r16_network.node[34].content_store 	decision_no[34] 	0
scalar tree_4_3_u01_r16_network.node[34].content_store 	decision_ratio[34] 	1
scalar tree_4_3_u01_r16_network.node[35].core_layer 	interests[35] 	13179
scalar tree_4_3_u01_r16_network.node[35].core_layer 	data[35] 	10022
scalar tree_4_3_u01_r16_network.node[35].content_store 	p_hit[35] 	0.23954776538432
scalar tree_4_3_u01_r16_network.node[35].content_store 	hits[35] 	3157
scalar tree_4_3_u01_r16_network.node[35].content_store 	misses[35] 	10022
scalar tree_4_3_u01_r16_network.node[35].content_store 	decision_yes[35] 	10022
scalar tree_4_3_u01_r16_network.node[35].content_store 	decision_no[35] 	0
scalar tree_4_3_u01_r16_network.node[35].content_store 	decision_ratio[35] 	1
scalar tree_4_3_u01_r16_network.node[36].core_layer 	interests[36] 	12959
scalar tree_4_3_u01_r16_network.node[36].core_layer 	data[36] 	9929
scalar tree_4_3_u01_r16_network.node[36].content_store 	p_hit[36] 	0.23381433752604
scalar tree_4_3_u01_r16_network.node[36].content_store 	hits[36] 	3030
scalar tree_4_3_u01_r16_network.node[36].content_store 	misses[36] 	9929
scalar tree_4_3_u01_r16_network.node[36].content_store 	decision_yes[36] 	9929
scalar tree_4_3_u01_r16_network.node[36].content_store 	decision_no[36] 	0
scalar tree_4_3_u01_r16_network.node[36].content_store 	decision_ratio[36] 	1
scalar tree_4_3_u01_r16_network.node[37].core_layer 	interests[37] 	12731
scalar tree_4_3_u01_r16_network.node[37].core_layer 	data[37] 	10103
scalar tree_4_3_u01_r16_network.node[37].content_store 	p_hit[37] 	0.20642526117351
scalar tree_4_3_u01_r16_network.node[37].content_store 	hits[37] 	2628
scalar tree_4_3_u01_r16_network.node[37].content_store 	misses[37] 	10103
scalar tree_4_3_u01_r16_network.node[37].content_store 	decision_yes[37] 	10103
scalar tree_4_3_u01_r16_network.node[37].content_store 	decision_no[37] 	0
scalar tree_4_3_u01_r16_network.node[37].content_store 	decision_ratio[37] 	1
scalar tree_4_3_u01_r16_network.node[38].core_layer 	interests[38] 	13893
scalar tree_4_3_u01_r16_network.node[38].core_layer 	data[38] 	9870
scalar tree_4_3_u01_r16_network.node[38].content_store 	p_hit[38] 	0.2896422658893
scalar tree_4_3_u01_r16_network.node[38].content_store 	hits[38] 	4024
scalar tree_4_3_u01_r16_network.node[38].content_store 	misses[38] 	9869
scalar tree_4_3_u01_r16_network.node[38].content_store 	decision_yes[38] 	9870
scalar tree_4_3_u01_r16_network.node[38].content_store 	decision_no[38] 	0
scalar tree_4_3_u01_r16_network.node[38].content_store 	decision_ratio[38] 	1
scalar tree_4_3_u01_r16_network.node[39].core_layer 	interests[39] 	12806
scalar tree_4_3_u01_r16_network.node[39].core_layer 	data[39] 	10175
scalar tree_4_3_u01_r16_network.node[39].content_store 	p_hit[39] 	0.20545057004529
scalar tree_4_3_u01_r16_network.node[39].content_store 	hits[39] 	2631
scalar tree_4_3_u01_r16_network.node[39].content_store 	misses[39] 	10175
scalar tree_4_3_u01_r16_network.node[39].content_store 	decision_yes[39] 	10175
scalar tree_4_3_u01_r16_network.node[39].content_store 	decision_no[39] 	0
scalar tree_4_3_u01_r16_network.node[39].content_store 	decision_ratio[39] 	1
scalar tree_4_3_u01_r16_network.client[13] 	hdistance[13] 	3.1337998833625
scalar tree_4_3_u01_r16_network.client[13] 	downloads[13] 	12003
scalar tree_4_3_u01_r16_network.client[13] 	avg_time[13] 	0.004902604696
scalar tree_4_3_u01_r16_network.client[14] 	hdistance[14] 	3.1224001320568
scalar tree_4_3_u01_r16_network.client[14] 	downloads[14] 	12116
scalar tree_4_3_u01_r16_network.client[14] 	avg_time[14] 	0.00487317761
scalar tree_4_3_u01_r16_network.client[15] 	hdistance[15] 	3.1443600233781
scalar tree_4_3_u01_r16_network.client[15] 	downloads[15] 	11977
scalar tree_4_3_u01_r16_network.client[15] 	avg_time[15] 	0.004909573676
scalar tree_4_3_u01_r16_network.client[16] 	hdistance[16] 	3.1692101291296
scalar tree_4_3_u01_r16_network.client[16] 	downloads[16] 	11926
scalar tree_4_3_u01_r16_network.client[16] 	avg_time[16] 	0.004960587317
scalar tree_4_3_u01_r16_network.client[17] 	hdistance[17] 	3.1235871010638
scalar tree_4_3_u01_r16_network.client[17] 	downloads[17] 	12032
scalar tree_4_3_u01_r16_network.client[17] 	avg_time[17] 	0.004884911712
scalar tree_4_3_u01_r16_network.client[18] 	hdistance[18] 	3.0282476460295
scalar tree_4_3_u01_r16_network.client[18] 	downloads[18] 	12001
scalar tree_4_3_u01_r16_network.client[18] 	avg_time[18] 	0.004696272296
scalar tree_4_3_u01_r16_network.client[19] 	hdistance[19] 	3.1276002029427
scalar tree_4_3_u01_r16_network.client[19] 	downloads[19] 	11826
scalar tree_4_3_u01_r16_network.client[19] 	avg_time[19] 	0.004870040528
scalar tree_4_3_u01_r16_network.client[20] 	hdistance[20] 	3.1175823245577
scalar tree_4_3_u01_r16_network.client[20] 	downloads[20] 	11813
scalar tree_4_3_u01_r16_network.client[20] 	avg_time[20] 	0.004861894209
scalar tree_4_3_u01_r16_network.client[21] 	hdistance[21] 	3.0886989711251
scalar tree_4_3_u01_r16_network.client[21] 	downloads[21] 	12052
scalar tree_4_3_u01_r16_network.client[21] 	avg_time[21] 	0.004812034649
scalar tree_4_3_u01_r16_network.client[22] 	hdistance[22] 	3.143906262893
scalar tree_4_3_u01_r16_network.client[22] 	downloads[22] 	12119
scalar tree_4_3_u01_r16_network.client[22] 	avg_time[22] 	0.004914587911
scalar tree_4_3_u01_r16_network.client[23] 	hdistance[23] 	3.1409148132606
scalar tree_4_3_u01_r16_network.client[23] 	downloads[23] 	11915
scalar tree_4_3_u01_r16_network.client[23] 	avg_time[23] 	0.004911873544
scalar tree_4_3_u01_r16_network.client[24] 	hdistance[24] 	3.1261533299782
scalar tree_4_3_u01_r16_network.client[24] 	downloads[24] 	11922
scalar tree_4_3_u01_r16_network.client[24] 	avg_time[24] 	0.00488210065
scalar tree_4_3_u01_r16_network.client[25] 	hdistance[25] 	3.1447794667331
scalar tree_4_3_u01_r16_network.client[25] 	downloads[25] 	12039
scalar tree_4_3_u01_r16_network.client[25] 	avg_time[25] 	0.004921003746
scalar tree_4_3_u01_r16_network.client[26] 	hdistance[26] 	3.135811965812
scalar tree_4_3_u01_r16_network.client[26] 	downloads[26] 	11700
scalar tree_4_3_u01_r16_network.client[26] 	avg_time[26] 	0.004908161674
scalar tree_4_3_u01_r16_network.client[27] 	hdistance[27] 	3.1400133824021
scalar tree_4_3_u01_r16_network.client[27] 	downloads[27] 	11956
scalar tree_4_3_u01_r16_network.client[27] 	avg_time[27] 	0.004913266034
scalar tree_4_3_u01_r16_network.client[28] 	hdistance[28] 	3.1267806267806
scalar tree_4_3_u01_r16_network.client[28] 	downloads[28] 	11934
scalar tree_4_3_u01_r16_network.client[28] 	avg_time[28] 	0.00490083437
scalar tree_4_3_u01_r16_network.client[29] 	hdistance[29] 	3.1498703688216
scalar tree_4_3_u01_r16_network.client[29] 	downloads[29] 	11957
scalar tree_4_3_u01_r16_network.client[29] 	avg_time[29] 	0.004926483613
scalar tree_4_3_u01_r16_network.client[30] 	hdistance[30] 	3.106628003314
scalar tree_4_3_u01_r16_network.client[30] 	downloads[30] 	12070
scalar tree_4_3_u01_r16_network.client[30] 	avg_time[30] 	0.004855998901
scalar tree_4_3_u01_r16_network.client[31] 	hdistance[31] 	3.1355234414384
scalar tree_4_3_u01_r16_network.client[31] 	downloads[31] 	11902
scalar tree_4_3_u01_r16_network.client[31] 	avg_time[31] 	0.004902031213
scalar tree_4_3_u01_r16_network.client[32] 	hdistance[32] 	3.0130114566285
scalar tree_4_3_u01_r16_network.client[32] 	downloads[32] 	12220
scalar tree_4_3_u01_r16_network.client[32] 	avg_time[32] 	0.00466219307
scalar tree_4_3_u01_r16_network.client[33] 	hdistance[33] 	3.1435809430416
scalar tree_4_3_u01_r16_network.client[33] 	downloads[33] 	12237
scalar tree_4_3_u01_r16_network.client[33] 	avg_time[33] 	0.004917576722
scalar tree_4_3_u01_r16_network.client[34] 	hdistance[34] 	3.0782377831245
scalar tree_4_3_u01_r16_network.client[34] 	downloads[34] 	12053
scalar tree_4_3_u01_r16_network.client[34] 	avg_time[34] 	0.004786140193
scalar tree_4_3_u01_r16_network.client[35] 	hdistance[35] 	3.070999499416
scalar tree_4_3_u01_r16_network.client[35] 	downloads[35] 	11986
scalar tree_4_3_u01_r16_network.client[35] 	avg_time[35] 	0.004776494596
scalar tree_4_3_u01_r16_network.client[36] 	hdistance[36] 	3.0762919732724
scalar tree_4_3_u01_r16_network.client[36] 	downloads[36] 	11823
scalar tree_4_3_u01_r16_network.client[36] 	avg_time[36] 	0.004787952713
scalar tree_4_3_u01_r16_network.client[37] 	hdistance[37] 	3.1525747508306
scalar tree_4_3_u01_r16_network.client[37] 	downloads[37] 	12040
scalar tree_4_3_u01_r16_network.client[37] 	avg_time[37] 	0.004924466238
scalar tree_4_3_u01_r16_network.client[38] 	hdistance[38] 	2.9952116935484
scalar tree_4_3_u01_r16_network.client[38] 	downloads[38] 	11904
scalar tree_4_3_u01_r16_network.client[38] 	avg_time[38] 	0.004629175159
scalar tree_4_3_u01_r16_network.client[39] 	hdistance[39] 	3.1372322899506
scalar tree_4_3_u01_r16_network.client[39] 	downloads[39] 	12140
scalar tree_4_3_u01_r16_network.client[39] 	avg_time[39] 	0.004910400224
