version 2
run General-46-20160819-20:13:28-9589
attr a 0.9
attr cd fix0.01
attr configname General
attr cr lru
attr datetime 20160819-20:13:28
attr experiment General
attr fsize 1
attr inifile hw5115/scenario_A/SPR-FIX0.01.ini
attr iterationvars "$name=tree_4_3, $un=02, $rep=7, $cd=fix0.01, $cr=lru, $fsize=1, $a=0.9, $sl=spr, $ttl=1000, $variance=0.05"
attr iterationvars2 "$name=tree_4_3, $un=02, $rep=7, $cd=fix0.01, $cr=lru, $fsize=1, $a=0.9, $sl=spr, $ttl=1000, $variance=0.05, $repetition=0"
attr measurement "$name=tree_4_3, $un=02, $rep=7, $cd=fix0.01, $cr=lru, $fsize=1, $a=0.9, $sl=spr, $ttl=1000, $variance=0.05"
attr name tree_4_3
attr network networks.${name}_u${un}_r${rep}_network
attr processid 9589
attr rep 7
attr repetition 0
attr replication #0
attr resultdir results
attr runnumber 46
attr seedset 7
attr sl spr
attr ttl 1000
attr un 02
attr variance 0.05

scalar . 	a 	0.9
scalar . 	fsize 	1
scalar . 	rep 	7
scalar . 	ttl 	1000
scalar . 	un 	02
scalar . 	variance 	0.05
scalar tree_4_3_u02_r7_network.content_distribution 	repo-0 	0
scalar tree_4_3_u02_r7_network.content_distribution 	client-0 	13
scalar tree_4_3_u02_r7_network.content_distribution 	client-1 	14
scalar tree_4_3_u02_r7_network.content_distribution 	client-2 	15
scalar tree_4_3_u02_r7_network.content_distribution 	client-3 	16
scalar tree_4_3_u02_r7_network.content_distribution 	client-4 	17
scalar tree_4_3_u02_r7_network.content_distribution 	client-5 	18
scalar tree_4_3_u02_r7_network.content_distribution 	client-6 	19
scalar tree_4_3_u02_r7_network.content_distribution 	client-7 	20
scalar tree_4_3_u02_r7_network.content_distribution 	client-8 	21
scalar tree_4_3_u02_r7_network.content_distribution 	client-9 	22
scalar tree_4_3_u02_r7_network.content_distribution 	client-10 	23
scalar tree_4_3_u02_r7_network.content_distribution 	client-11 	24
scalar tree_4_3_u02_r7_network.content_distribution 	client-12 	25
scalar tree_4_3_u02_r7_network.content_distribution 	client-13 	26
scalar tree_4_3_u02_r7_network.content_distribution 	client-14 	27
scalar tree_4_3_u02_r7_network.content_distribution 	client-15 	28
scalar tree_4_3_u02_r7_network.content_distribution 	client-16 	29
scalar tree_4_3_u02_r7_network.content_distribution 	client-17 	30
scalar tree_4_3_u02_r7_network.content_distribution 	client-18 	31
scalar tree_4_3_u02_r7_network.content_distribution 	client-19 	32
scalar tree_4_3_u02_r7_network.content_distribution 	client-20 	33
scalar tree_4_3_u02_r7_network.content_distribution 	client-21 	34
scalar tree_4_3_u02_r7_network.content_distribution 	client-22 	35
scalar tree_4_3_u02_r7_network.content_distribution 	client-23 	36
scalar tree_4_3_u02_r7_network.content_distribution 	client-24 	37
scalar tree_4_3_u02_r7_network.content_distribution 	client-25 	38
scalar tree_4_3_u02_r7_network.content_distribution 	client-26 	39
scalar tree_4_3_u02_r7_network.content_distribution 	repo-0_card 	100000
scalar tree_4_3_u02_r7_network.content_distribution 	repo-0_price 	0
scalar tree_4_3_u02_r7_network.statistics 	stabilization_time 	2893.4
scalar tree_4_3_u02_r7_network.statistics 	p_hit 	0.18035033811087
scalar tree_4_3_u02_r7_network.statistics 	interests 	25621.7
scalar tree_4_3_u02_r7_network.statistics 	data 	17521.95
scalar tree_4_3_u02_r7_network.statistics 	hdistance 	2.8439438014077
scalar tree_4_3_u02_r7_network.statistics 	avg_time 	0.004326793651
scalar tree_4_3_u02_r7_network.statistics 	downloads 	323980
scalar tree_4_3_u02_r7_network.statistics 	total_cost 	0
scalar tree_4_3_u02_r7_network.statistics 	total_replicas 	100000
scalar tree_4_3_u02_r7_network.statistics 	inner_hit 	0.31947651089573
scalar tree_4_3_u02_r7_network.node[0].core_layer 	interests[0] 	225061
scalar tree_4_3_u02_r7_network.node[0].core_layer 	repo_load[0] 	220476
scalar tree_4_3_u02_r7_network.node[0].core_layer 	data[0] 	0
scalar tree_4_3_u02_r7_network.node[0].core_layer 	repo_int[0] 	220476
scalar tree_4_3_u02_r7_network.node[0].content_store 	p_hit[0] 	0.020372254633188
scalar tree_4_3_u02_r7_network.node[0].content_store 	hits[0] 	4585
scalar tree_4_3_u02_r7_network.node[0].content_store 	misses[0] 	220476
scalar tree_4_3_u02_r7_network.node[0].content_store 	decision_yes[0] 	2232
scalar tree_4_3_u02_r7_network.node[0].content_store 	decision_no[0] 	218244
scalar tree_4_3_u02_r7_network.node[0].content_store 	decision_ratio[0] 	0.010123550862679
scalar tree_4_3_u02_r7_network.node[1].core_layer 	interests[1] 	76968
scalar tree_4_3_u02_r7_network.node[1].core_layer 	data[1] 	74843
scalar tree_4_3_u02_r7_network.node[1].content_store 	p_hit[1] 	0.027582891591311
scalar tree_4_3_u02_r7_network.node[1].content_store 	hits[1] 	2123
scalar tree_4_3_u02_r7_network.node[1].content_store 	misses[1] 	74845
scalar tree_4_3_u02_r7_network.node[1].content_store 	decision_yes[1] 	781
scalar tree_4_3_u02_r7_network.node[1].content_store 	decision_no[1] 	74062
scalar tree_4_3_u02_r7_network.node[1].content_store 	decision_ratio[1] 	0.010435177638523
scalar tree_4_3_u02_r7_network.node[2].core_layer 	interests[2] 	76807
scalar tree_4_3_u02_r7_network.node[2].core_layer 	data[2] 	74709
scalar tree_4_3_u02_r7_network.node[2].content_store 	p_hit[2] 	0.027276159725025
scalar tree_4_3_u02_r7_network.node[2].content_store 	hits[2] 	2095
scalar tree_4_3_u02_r7_network.node[2].content_store 	misses[2] 	74712
scalar tree_4_3_u02_r7_network.node[2].content_store 	decision_yes[2] 	788
scalar tree_4_3_u02_r7_network.node[2].content_store 	decision_no[2] 	73921
scalar tree_4_3_u02_r7_network.node[2].content_store 	decision_ratio[2] 	0.010547591320992
scalar tree_4_3_u02_r7_network.node[3].core_layer 	interests[3] 	77637
scalar tree_4_3_u02_r7_network.node[3].core_layer 	data[3] 	75508
scalar tree_4_3_u02_r7_network.node[3].content_store 	p_hit[3] 	0.027435372309595
scalar tree_4_3_u02_r7_network.node[3].content_store 	hits[3] 	2130
scalar tree_4_3_u02_r7_network.node[3].content_store 	misses[3] 	75507
scalar tree_4_3_u02_r7_network.node[3].content_store 	decision_yes[3] 	762
scalar tree_4_3_u02_r7_network.node[3].content_store 	decision_no[3] 	74746
scalar tree_4_3_u02_r7_network.node[3].content_store 	decision_ratio[3] 	0.010091645918313
scalar tree_4_3_u02_r7_network.node[4].core_layer 	interests[4] 	27325
scalar tree_4_3_u02_r7_network.node[4].core_layer 	data[4] 	25841
scalar tree_4_3_u02_r7_network.node[4].content_store 	p_hit[4] 	0.054309240622141
scalar tree_4_3_u02_r7_network.node[4].content_store 	hits[4] 	1484
scalar tree_4_3_u02_r7_network.node[4].content_store 	misses[4] 	25841
scalar tree_4_3_u02_r7_network.node[4].content_store 	decision_yes[4] 	259
scalar tree_4_3_u02_r7_network.node[4].content_store 	decision_no[4] 	25582
scalar tree_4_3_u02_r7_network.node[4].content_store 	decision_ratio[4] 	0.010022831933749
scalar tree_4_3_u02_r7_network.node[5].core_layer 	interests[5] 	36088
scalar tree_4_3_u02_r7_network.node[5].core_layer 	data[5] 	34148
scalar tree_4_3_u02_r7_network.node[5].content_store 	p_hit[5] 	0.053757481711372
scalar tree_4_3_u02_r7_network.node[5].content_store 	hits[5] 	1940
scalar tree_4_3_u02_r7_network.node[5].content_store 	misses[5] 	34148
scalar tree_4_3_u02_r7_network.node[5].content_store 	decision_yes[5] 	311
scalar tree_4_3_u02_r7_network.node[5].content_store 	decision_no[5] 	33837
scalar tree_4_3_u02_r7_network.node[5].content_store 	decision_ratio[5] 	0.0091074147827106
scalar tree_4_3_u02_r7_network.node[6].core_layer 	interests[6] 	18002
scalar tree_4_3_u02_r7_network.node[6].core_layer 	data[6] 	16978
scalar tree_4_3_u02_r7_network.node[6].content_store 	p_hit[6] 	0.056827019220087
scalar tree_4_3_u02_r7_network.node[6].content_store 	hits[6] 	1023
scalar tree_4_3_u02_r7_network.node[6].content_store 	misses[6] 	16979
scalar tree_4_3_u02_r7_network.node[6].content_store 	decision_yes[6] 	151
scalar tree_4_3_u02_r7_network.node[6].content_store 	decision_no[6] 	16827
scalar tree_4_3_u02_r7_network.node[6].content_store 	decision_ratio[6] 	0.0088938626457769
scalar tree_4_3_u02_r7_network.node[7].core_layer 	interests[7] 	35835
scalar tree_4_3_u02_r7_network.node[7].core_layer 	data[7] 	34036
scalar tree_4_3_u02_r7_network.node[7].content_store 	p_hit[7] 	0.05014650481373
scalar tree_4_3_u02_r7_network.node[7].content_store 	hits[7] 	1797
scalar tree_4_3_u02_r7_network.node[7].content_store 	misses[7] 	34038
scalar tree_4_3_u02_r7_network.node[7].content_store 	decision_yes[7] 	354
scalar tree_4_3_u02_r7_network.node[7].content_store 	decision_no[7] 	33682
scalar tree_4_3_u02_r7_network.node[7].content_store 	decision_ratio[7] 	0.010400752144788
scalar tree_4_3_u02_r7_network.node[8].core_layer 	interests[8] 	27132
scalar tree_4_3_u02_r7_network.node[8].core_layer 	data[8] 	25632
scalar tree_4_3_u02_r7_network.node[8].content_store 	p_hit[8] 	0.055285272003538
scalar tree_4_3_u02_r7_network.node[8].content_store 	hits[8] 	1500
scalar tree_4_3_u02_r7_network.node[8].content_store 	misses[8] 	25632
scalar tree_4_3_u02_r7_network.node[8].content_store 	decision_yes[8] 	264
scalar tree_4_3_u02_r7_network.node[8].content_store 	decision_no[8] 	25368
scalar tree_4_3_u02_r7_network.node[8].content_store 	decision_ratio[8] 	0.010299625468165
scalar tree_4_3_u02_r7_network.node[9].core_layer 	interests[9] 	18105
scalar tree_4_3_u02_r7_network.node[9].core_layer 	data[9] 	17137
scalar tree_4_3_u02_r7_network.node[9].content_store 	p_hit[9] 	0.053465893399613
scalar tree_4_3_u02_r7_network.node[9].content_store 	hits[9] 	968
scalar tree_4_3_u02_r7_network.node[9].content_store 	misses[9] 	17137
scalar tree_4_3_u02_r7_network.node[9].content_store 	decision_yes[9] 	178
scalar tree_4_3_u02_r7_network.node[9].content_store 	decision_no[9] 	16959
scalar tree_4_3_u02_r7_network.node[9].content_store 	decision_ratio[9] 	0.010386882184746
scalar tree_4_3_u02_r7_network.node[10].core_layer 	interests[10] 	27117
scalar tree_4_3_u02_r7_network.node[10].core_layer 	data[10] 	25776
scalar tree_4_3_u02_r7_network.node[10].content_store 	p_hit[10] 	0.049452373050116
scalar tree_4_3_u02_r7_network.node[10].content_store 	hits[10] 	1341
scalar tree_4_3_u02_r7_network.node[10].content_store 	misses[10] 	25776
scalar tree_4_3_u02_r7_network.node[10].content_store 	decision_yes[10] 	249
scalar tree_4_3_u02_r7_network.node[10].content_store 	decision_no[10] 	25527
scalar tree_4_3_u02_r7_network.node[10].content_store 	decision_ratio[10] 	0.0096601489757914
scalar tree_4_3_u02_r7_network.node[11].core_layer 	interests[11] 	27291
scalar tree_4_3_u02_r7_network.node[11].core_layer 	data[11] 	25879
scalar tree_4_3_u02_r7_network.node[11].content_store 	p_hit[11] 	0.05170202630904
scalar tree_4_3_u02_r7_network.node[11].content_store 	hits[11] 	1411
scalar tree_4_3_u02_r7_network.node[11].content_store 	misses[11] 	25880
scalar tree_4_3_u02_r7_network.node[11].content_store 	decision_yes[11] 	254
scalar tree_4_3_u02_r7_network.node[11].content_store 	decision_no[11] 	25625
scalar tree_4_3_u02_r7_network.node[11].content_store 	decision_ratio[11] 	0.0098149078403339
scalar tree_4_3_u02_r7_network.node[12].core_layer 	interests[12] 	27515
scalar tree_4_3_u02_r7_network.node[12].core_layer 	data[12] 	25983
scalar tree_4_3_u02_r7_network.node[12].content_store 	p_hit[12] 	0.055642376885335
scalar tree_4_3_u02_r7_network.node[12].content_store 	hits[12] 	1531
scalar tree_4_3_u02_r7_network.node[12].content_store 	misses[12] 	25984
scalar tree_4_3_u02_r7_network.node[12].content_store 	decision_yes[12] 	286
scalar tree_4_3_u02_r7_network.node[12].content_store 	decision_no[12] 	25697
scalar tree_4_3_u02_r7_network.node[12].content_store 	decision_ratio[12] 	0.011007197013432
scalar tree_4_3_u02_r7_network.node[13].core_layer 	interests[13] 	11934
scalar tree_4_3_u02_r7_network.node[13].core_layer 	data[13] 	9058
scalar tree_4_3_u02_r7_network.node[13].content_store 	p_hit[13] 	0.24099212334506
scalar tree_4_3_u02_r7_network.node[13].content_store 	hits[13] 	2876
scalar tree_4_3_u02_r7_network.node[13].content_store 	misses[13] 	9058
scalar tree_4_3_u02_r7_network.node[13].content_store 	decision_yes[13] 	97
scalar tree_4_3_u02_r7_network.node[13].content_store 	decision_no[13] 	8961
scalar tree_4_3_u02_r7_network.node[13].content_store 	decision_ratio[13] 	0.01070876573195
scalar tree_4_3_u02_r7_network.node[14].core_layer 	interests[14] 	11986
scalar tree_4_3_u02_r7_network.node[14].core_layer 	data[14] 	9003
scalar tree_4_3_u02_r7_network.node[14].content_store 	p_hit[14] 	0.24887368596696
scalar tree_4_3_u02_r7_network.node[14].content_store 	hits[14] 	2983
scalar tree_4_3_u02_r7_network.node[14].content_store 	misses[14] 	9003
scalar tree_4_3_u02_r7_network.node[14].content_store 	decision_yes[14] 	86
scalar tree_4_3_u02_r7_network.node[14].content_store 	decision_no[14] 	8917
scalar tree_4_3_u02_r7_network.node[14].content_store 	decision_ratio[14] 	0.009552371431745
scalar tree_4_3_u02_r7_network.node[15].core_layer 	interests[15] 	12264
scalar tree_4_3_u02_r7_network.node[15].core_layer 	data[15] 	9264
scalar tree_4_3_u02_r7_network.node[15].content_store 	p_hit[15] 	0.24461839530333
scalar tree_4_3_u02_r7_network.node[15].content_store 	hits[15] 	3000
scalar tree_4_3_u02_r7_network.node[15].content_store 	misses[15] 	9264
scalar tree_4_3_u02_r7_network.node[15].content_store 	decision_yes[15] 	93
scalar tree_4_3_u02_r7_network.node[15].content_store 	decision_no[15] 	9171
scalar tree_4_3_u02_r7_network.node[15].content_store 	decision_ratio[15] 	0.010038860103627
scalar tree_4_3_u02_r7_network.node[16].core_layer 	interests[16] 	11787
scalar tree_4_3_u02_r7_network.node[16].core_layer 	data[16] 	8944
scalar tree_4_3_u02_r7_network.node[16].content_store 	p_hit[16] 	0.2411979299228
scalar tree_4_3_u02_r7_network.node[16].content_store 	hits[16] 	2843
scalar tree_4_3_u02_r7_network.node[16].content_store 	misses[16] 	8944
scalar tree_4_3_u02_r7_network.node[16].content_store 	decision_yes[16] 	84
scalar tree_4_3_u02_r7_network.node[16].content_store 	decision_no[16] 	8860
scalar tree_4_3_u02_r7_network.node[16].content_store 	decision_ratio[16] 	0.009391771019678
scalar tree_4_3_u02_r7_network.node[17].core_layer 	interests[17] 	12165
scalar tree_4_3_u02_r7_network.node[17].core_layer 	data[17] 	9156
scalar tree_4_3_u02_r7_network.node[17].content_store 	p_hit[17] 	0.24734895191122
scalar tree_4_3_u02_r7_network.node[17].content_store 	hits[17] 	3009
scalar tree_4_3_u02_r7_network.node[17].content_store 	misses[17] 	9156
scalar tree_4_3_u02_r7_network.node[17].content_store 	decision_yes[17] 	91
scalar tree_4_3_u02_r7_network.node[17].content_store 	decision_no[17] 	9065
scalar tree_4_3_u02_r7_network.node[17].content_store 	decision_ratio[17] 	0.0099388379204893
scalar tree_4_3_u02_r7_network.node[18].core_layer 	interests[18] 	12067
scalar tree_4_3_u02_r7_network.node[18].core_layer 	data[18] 	8944
scalar tree_4_3_u02_r7_network.node[18].content_store 	p_hit[18] 	0.25880500538659
scalar tree_4_3_u02_r7_network.node[18].content_store 	hits[18] 	3123
scalar tree_4_3_u02_r7_network.node[18].content_store 	misses[18] 	8944
scalar tree_4_3_u02_r7_network.node[18].content_store 	decision_yes[18] 	88
scalar tree_4_3_u02_r7_network.node[18].content_store 	decision_no[18] 	8856
scalar tree_4_3_u02_r7_network.node[18].content_store 	decision_ratio[18] 	0.0098389982110912
scalar tree_4_3_u02_r7_network.node[19].core_layer 	interests[19] 	11881
scalar tree_4_3_u02_r7_network.node[19].core_layer 	data[19] 	9003
scalar tree_4_3_u02_r7_network.node[19].content_store 	p_hit[19] 	0.24215133406279
scalar tree_4_3_u02_r7_network.node[19].content_store 	hits[19] 	2877
scalar tree_4_3_u02_r7_network.node[19].content_store 	misses[19] 	9004
scalar tree_4_3_u02_r7_network.node[19].content_store 	decision_yes[19] 	96
scalar tree_4_3_u02_r7_network.node[19].content_store 	decision_no[19] 	8907
scalar tree_4_3_u02_r7_network.node[19].content_store 	decision_ratio[19] 	0.010663112295901
scalar tree_4_3_u02_r7_network.node[20].core_layer 	interests[20] 	11903
scalar tree_4_3_u02_r7_network.node[20].core_layer 	data[20] 	9044
scalar tree_4_3_u02_r7_network.node[20].content_store 	p_hit[20] 	0.24019154834916
scalar tree_4_3_u02_r7_network.node[20].content_store 	hits[20] 	2859
scalar tree_4_3_u02_r7_network.node[20].content_store 	misses[20] 	9044
scalar tree_4_3_u02_r7_network.node[20].content_store 	decision_yes[20] 	86
scalar tree_4_3_u02_r7_network.node[20].content_store 	decision_no[20] 	8958
scalar tree_4_3_u02_r7_network.node[20].content_store 	decision_ratio[20] 	0.0095090667846086
scalar tree_4_3_u02_r7_network.node[21].core_layer 	interests[21] 	11915
scalar tree_4_3_u02_r7_network.node[21].core_layer 	data[21] 	8998
scalar tree_4_3_u02_r7_network.node[21].content_store 	p_hit[21] 	0.24481745698699
scalar tree_4_3_u02_r7_network.node[21].content_store 	hits[21] 	2917
scalar tree_4_3_u02_r7_network.node[21].content_store 	misses[21] 	8998
scalar tree_4_3_u02_r7_network.node[21].content_store 	decision_yes[21] 	79
scalar tree_4_3_u02_r7_network.node[21].content_store 	decision_no[21] 	8919
scalar tree_4_3_u02_r7_network.node[21].content_store 	decision_ratio[21] 	0.0087797288286286
scalar tree_4_3_u02_r7_network.node[22].core_layer 	interests[22] 	11842
scalar tree_4_3_u02_r7_network.node[22].core_layer 	data[22] 	8924
scalar tree_4_3_u02_r7_network.node[22].content_store 	p_hit[22] 	0.24632663401452
scalar tree_4_3_u02_r7_network.node[22].content_store 	hits[22] 	2917
scalar tree_4_3_u02_r7_network.node[22].content_store 	misses[22] 	8925
scalar tree_4_3_u02_r7_network.node[22].content_store 	decision_yes[22] 	87
scalar tree_4_3_u02_r7_network.node[22].content_store 	decision_no[22] 	8837
scalar tree_4_3_u02_r7_network.node[22].content_store 	decision_ratio[22] 	0.0097489914836396
scalar tree_4_3_u02_r7_network.node[23].core_layer 	interests[23] 	12076
scalar tree_4_3_u02_r7_network.node[23].core_layer 	data[23] 	8979
scalar tree_4_3_u02_r7_network.node[23].content_store 	p_hit[23] 	0.25645909241471
scalar tree_4_3_u02_r7_network.node[23].content_store 	hits[23] 	3097
scalar tree_4_3_u02_r7_network.node[23].content_store 	misses[23] 	8979
scalar tree_4_3_u02_r7_network.node[23].content_store 	decision_yes[23] 	96
scalar tree_4_3_u02_r7_network.node[23].content_store 	decision_no[23] 	8883
scalar tree_4_3_u02_r7_network.node[23].content_store 	decision_ratio[23] 	0.010691613765453
scalar tree_4_3_u02_r7_network.node[24].core_layer 	interests[24] 	11814
scalar tree_4_3_u02_r7_network.node[24].core_layer 	data[24] 	8944
scalar tree_4_3_u02_r7_network.node[24].content_store 	p_hit[24] 	0.24293211444049
scalar tree_4_3_u02_r7_network.node[24].content_store 	hits[24] 	2870
scalar tree_4_3_u02_r7_network.node[24].content_store 	misses[24] 	8944
scalar tree_4_3_u02_r7_network.node[24].content_store 	decision_yes[24] 	76
scalar tree_4_3_u02_r7_network.node[24].content_store 	decision_no[24] 	8868
scalar tree_4_3_u02_r7_network.node[24].content_store 	decision_ratio[24] 	0.0084973166368515
scalar tree_4_3_u02_r7_network.node[25].core_layer 	interests[25] 	12064
scalar tree_4_3_u02_r7_network.node[25].core_layer 	data[25] 	9122
scalar tree_4_3_u02_r7_network.node[25].content_store 	p_hit[25] 	0.24386604774536
scalar tree_4_3_u02_r7_network.node[25].content_store 	hits[25] 	2942
scalar tree_4_3_u02_r7_network.node[25].content_store 	misses[25] 	9122
scalar tree_4_3_u02_r7_network.node[25].content_store 	decision_yes[25] 	97
scalar tree_4_3_u02_r7_network.node[25].content_store 	decision_no[25] 	9025
scalar tree_4_3_u02_r7_network.node[25].content_store 	decision_ratio[25] 	0.010633632975225
scalar tree_4_3_u02_r7_network.node[26].core_layer 	interests[26] 	11861
scalar tree_4_3_u02_r7_network.node[26].core_layer 	data[26] 	8985
scalar tree_4_3_u02_r7_network.node[26].content_store 	p_hit[26] 	0.24239102942416
scalar tree_4_3_u02_r7_network.node[26].content_store 	hits[26] 	2875
scalar tree_4_3_u02_r7_network.node[26].content_store 	misses[26] 	8986
scalar tree_4_3_u02_r7_network.node[26].content_store 	decision_yes[26] 	108
scalar tree_4_3_u02_r7_network.node[26].content_store 	decision_no[26] 	8877
scalar tree_4_3_u02_r7_network.node[26].content_store 	decision_ratio[26] 	0.012020033388982
scalar tree_4_3_u02_r7_network.node[27].core_layer 	interests[27] 	12052
scalar tree_4_3_u02_r7_network.node[27].core_layer 	data[27] 	9025
scalar tree_4_3_u02_r7_network.node[27].content_store 	p_hit[27] 	0.251161632924
scalar tree_4_3_u02_r7_network.node[27].content_store 	hits[27] 	3027
scalar tree_4_3_u02_r7_network.node[27].content_store 	misses[27] 	9025
scalar tree_4_3_u02_r7_network.node[27].content_store 	decision_yes[27] 	80
scalar tree_4_3_u02_r7_network.node[27].content_store 	decision_no[27] 	8945
scalar tree_4_3_u02_r7_network.node[27].content_store 	decision_ratio[27] 	0.0088642659279778
scalar tree_4_3_u02_r7_network.node[28].core_layer 	interests[28] 	11821
scalar tree_4_3_u02_r7_network.node[28].core_layer 	data[28] 	8986
scalar tree_4_3_u02_r7_network.node[28].content_store 	p_hit[28] 	0.23974283055579
scalar tree_4_3_u02_r7_network.node[28].content_store 	hits[28] 	2834
scalar tree_4_3_u02_r7_network.node[28].content_store 	misses[28] 	8987
scalar tree_4_3_u02_r7_network.node[28].content_store 	decision_yes[28] 	94
scalar tree_4_3_u02_r7_network.node[28].content_store 	decision_no[28] 	8892
scalar tree_4_3_u02_r7_network.node[28].content_store 	decision_ratio[28] 	0.010460716670376
scalar tree_4_3_u02_r7_network.node[29].core_layer 	interests[29] 	12069
scalar tree_4_3_u02_r7_network.node[29].core_layer 	data[29] 	9128
scalar tree_4_3_u02_r7_network.node[29].content_store 	p_hit[29] 	0.24368216090811
scalar tree_4_3_u02_r7_network.node[29].content_store 	hits[29] 	2941
scalar tree_4_3_u02_r7_network.node[29].content_store 	misses[29] 	9128
scalar tree_4_3_u02_r7_network.node[29].content_store 	decision_yes[29] 	86
scalar tree_4_3_u02_r7_network.node[29].content_store 	decision_no[29] 	9042
scalar tree_4_3_u02_r7_network.node[29].content_store 	decision_ratio[29] 	0.009421560035057
scalar tree_4_3_u02_r7_network.node[30].core_layer 	interests[30] 	12042
scalar tree_4_3_u02_r7_network.node[30].core_layer 	data[30] 	8977
scalar tree_4_3_u02_r7_network.node[30].content_store 	p_hit[30] 	0.25452582627471
scalar tree_4_3_u02_r7_network.node[30].content_store 	hits[30] 	3065
scalar tree_4_3_u02_r7_network.node[30].content_store 	misses[30] 	8977
scalar tree_4_3_u02_r7_network.node[30].content_store 	decision_yes[30] 	83
scalar tree_4_3_u02_r7_network.node[30].content_store 	decision_no[30] 	8894
scalar tree_4_3_u02_r7_network.node[30].content_store 	decision_ratio[30] 	0.0092458505068508
scalar tree_4_3_u02_r7_network.node[31].core_layer 	interests[31] 	12201
scalar tree_4_3_u02_r7_network.node[31].core_layer 	data[31] 	9197
scalar tree_4_3_u02_r7_network.node[31].content_store 	p_hit[31] 	0.24620932710434
scalar tree_4_3_u02_r7_network.node[31].content_store 	hits[31] 	3004
scalar tree_4_3_u02_r7_network.node[31].content_store 	misses[31] 	9197
scalar tree_4_3_u02_r7_network.node[31].content_store 	decision_yes[31] 	90
scalar tree_4_3_u02_r7_network.node[31].content_store 	decision_no[31] 	9107
scalar tree_4_3_u02_r7_network.node[31].content_store 	decision_ratio[31] 	0.0097857997172991
scalar tree_4_3_u02_r7_network.node[32].core_layer 	interests[32] 	12048
scalar tree_4_3_u02_r7_network.node[32].core_layer 	data[32] 	8964
scalar tree_4_3_u02_r7_network.node[32].content_store 	p_hit[32] 	0.25597609561753
scalar tree_4_3_u02_r7_network.node[32].content_store 	hits[32] 	3084
scalar tree_4_3_u02_r7_network.node[32].content_store 	misses[32] 	8964
scalar tree_4_3_u02_r7_network.node[32].content_store 	decision_yes[32] 	99
scalar tree_4_3_u02_r7_network.node[32].content_store 	decision_no[32] 	8865
scalar tree_4_3_u02_r7_network.node[32].content_store 	decision_ratio[32] 	0.011044176706827
scalar tree_4_3_u02_r7_network.node[33].core_layer 	interests[33] 	12038
scalar tree_4_3_u02_r7_network.node[33].core_layer 	data[33] 	8957
scalar tree_4_3_u02_r7_network.node[33].content_store 	p_hit[33] 	0.25593952483801
scalar tree_4_3_u02_r7_network.node[33].content_store 	hits[33] 	3081
scalar tree_4_3_u02_r7_network.node[33].content_store 	misses[33] 	8957
scalar tree_4_3_u02_r7_network.node[33].content_store 	decision_yes[33] 	79
scalar tree_4_3_u02_r7_network.node[33].content_store 	decision_no[33] 	8878
scalar tree_4_3_u02_r7_network.node[33].content_store 	decision_ratio[33] 	0.0088199173830524
scalar tree_4_3_u02_r7_network.node[34].core_layer 	interests[34] 	11939
scalar tree_4_3_u02_r7_network.node[34].core_layer 	data[34] 	9007
scalar tree_4_3_u02_r7_network.node[34].content_store 	p_hit[34] 	0.24558170701064
scalar tree_4_3_u02_r7_network.node[34].content_store 	hits[34] 	2932
scalar tree_4_3_u02_r7_network.node[34].content_store 	misses[34] 	9007
scalar tree_4_3_u02_r7_network.node[34].content_store 	decision_yes[34] 	96
scalar tree_4_3_u02_r7_network.node[34].content_store 	decision_no[34] 	8911
scalar tree_4_3_u02_r7_network.node[34].content_store 	decision_ratio[34] 	0.01065837681803
scalar tree_4_3_u02_r7_network.node[35].core_layer 	interests[35] 	12090
scalar tree_4_3_u02_r7_network.node[35].core_layer 	data[35] 	9336
scalar tree_4_3_u02_r7_network.node[35].content_store 	p_hit[35] 	0.22779156327543
scalar tree_4_3_u02_r7_network.node[35].content_store 	hits[35] 	2754
scalar tree_4_3_u02_r7_network.node[35].content_store 	misses[35] 	9336
scalar tree_4_3_u02_r7_network.node[35].content_store 	decision_yes[35] 	70
scalar tree_4_3_u02_r7_network.node[35].content_store 	decision_no[35] 	9266
scalar tree_4_3_u02_r7_network.node[35].content_store 	decision_ratio[35] 	0.0074978577549272
scalar tree_4_3_u02_r7_network.node[36].core_layer 	interests[36] 	12042
scalar tree_4_3_u02_r7_network.node[36].core_layer 	data[36] 	8948
scalar tree_4_3_u02_r7_network.node[36].content_store 	p_hit[36] 	0.25693406410895
scalar tree_4_3_u02_r7_network.node[36].content_store 	hits[36] 	3094
scalar tree_4_3_u02_r7_network.node[36].content_store 	misses[36] 	8948
scalar tree_4_3_u02_r7_network.node[36].content_store 	decision_yes[36] 	85
scalar tree_4_3_u02_r7_network.node[36].content_store 	decision_no[36] 	8863
scalar tree_4_3_u02_r7_network.node[36].content_store 	decision_ratio[36] 	0.009499329459097
scalar tree_4_3_u02_r7_network.node[37].core_layer 	interests[37] 	12097
scalar tree_4_3_u02_r7_network.node[37].core_layer 	data[37] 	9201
scalar tree_4_3_u02_r7_network.node[37].content_store 	p_hit[37] 	0.23939819790031
scalar tree_4_3_u02_r7_network.node[37].content_store 	hits[37] 	2896
scalar tree_4_3_u02_r7_network.node[37].content_store 	misses[37] 	9201
scalar tree_4_3_u02_r7_network.node[37].content_store 	decision_yes[37] 	87
scalar tree_4_3_u02_r7_network.node[37].content_store 	decision_no[37] 	9114
scalar tree_4_3_u02_r7_network.node[37].content_store 	decision_ratio[37] 	0.009455493968047
scalar tree_4_3_u02_r7_network.node[38].core_layer 	interests[38] 	12037
scalar tree_4_3_u02_r7_network.node[38].core_layer 	data[38] 	9060
scalar tree_4_3_u02_r7_network.node[38].content_store 	p_hit[38] 	0.24723768380826
scalar tree_4_3_u02_r7_network.node[38].content_store 	hits[38] 	2976
scalar tree_4_3_u02_r7_network.node[38].content_store 	misses[38] 	9061
scalar tree_4_3_u02_r7_network.node[38].content_store 	decision_yes[38] 	96
scalar tree_4_3_u02_r7_network.node[38].content_store 	decision_no[38] 	8964
scalar tree_4_3_u02_r7_network.node[38].content_store 	decision_ratio[38] 	0.010596026490066
scalar tree_4_3_u02_r7_network.node[39].core_layer 	interests[39] 	11950
scalar tree_4_3_u02_r7_network.node[39].core_layer 	data[39] 	9254
scalar tree_4_3_u02_r7_network.node[39].content_store 	p_hit[39] 	0.22560669456067
scalar tree_4_3_u02_r7_network.node[39].content_store 	hits[39] 	2696
scalar tree_4_3_u02_r7_network.node[39].content_store 	misses[39] 	9254
scalar tree_4_3_u02_r7_network.node[39].content_store 	decision_yes[39] 	91
scalar tree_4_3_u02_r7_network.node[39].content_store 	decision_no[39] 	9163
scalar tree_4_3_u02_r7_network.node[39].content_store 	decision_ratio[39] 	0.0098335854765507
scalar tree_4_3_u02_r7_network.client[13] 	hdistance[13] 	2.8470755823697
scalar tree_4_3_u02_r7_network.client[13] 	downloads[13] 	11934
scalar tree_4_3_u02_r7_network.client[13] 	avg_time[13] 	0.004335341431
scalar tree_4_3_u02_r7_network.client[14] 	hdistance[14] 	2.844068079426
scalar tree_4_3_u02_r7_network.client[14] 	downloads[14] 	11986
scalar tree_4_3_u02_r7_network.client[14] 	avg_time[14] 	0.004321874891
scalar tree_4_3_u02_r7_network.client[15] 	hdistance[15] 	2.8520874103066
scalar tree_4_3_u02_r7_network.client[15] 	downloads[15] 	12264
scalar tree_4_3_u02_r7_network.client[15] 	avg_time[15] 	0.004336918005
scalar tree_4_3_u02_r7_network.client[16] 	hdistance[16] 	2.8494103673539
scalar tree_4_3_u02_r7_network.client[16] 	downloads[16] 	11787
scalar tree_4_3_u02_r7_network.client[16] 	avg_time[16] 	0.004340202378
scalar tree_4_3_u02_r7_network.client[17] 	hdistance[17] 	2.8311549527333
scalar tree_4_3_u02_r7_network.client[17] 	downloads[17] 	12165
scalar tree_4_3_u02_r7_network.client[17] 	avg_time[17] 	0.00430825836
scalar tree_4_3_u02_r7_network.client[18] 	hdistance[18] 	2.7908345073341
scalar tree_4_3_u02_r7_network.client[18] 	downloads[18] 	12067
scalar tree_4_3_u02_r7_network.client[18] 	avg_time[18] 	0.004246454279
scalar tree_4_3_u02_r7_network.client[19] 	hdistance[19] 	2.8595117845118
scalar tree_4_3_u02_r7_network.client[19] 	downloads[19] 	11880
scalar tree_4_3_u02_r7_network.client[19] 	avg_time[19] 	0.00434848186
scalar tree_4_3_u02_r7_network.client[20] 	hdistance[20] 	2.8596992354869
scalar tree_4_3_u02_r7_network.client[20] 	downloads[20] 	11903
scalar tree_4_3_u02_r7_network.client[20] 	avg_time[20] 	0.004357889977
scalar tree_4_3_u02_r7_network.client[21] 	hdistance[21] 	2.833319345363
scalar tree_4_3_u02_r7_network.client[21] 	downloads[21] 	11915
scalar tree_4_3_u02_r7_network.client[21] 	avg_time[21] 	0.00431204067
scalar tree_4_3_u02_r7_network.client[22] 	hdistance[22] 	2.8523773329955
scalar tree_4_3_u02_r7_network.client[22] 	downloads[22] 	11841
scalar tree_4_3_u02_r7_network.client[22] 	avg_time[22] 	0.004335441666
scalar tree_4_3_u02_r7_network.client[23] 	hdistance[23] 	2.81823451474
scalar tree_4_3_u02_r7_network.client[23] 	downloads[23] 	12076
scalar tree_4_3_u02_r7_network.client[23] 	avg_time[23] 	0.004284693906
scalar tree_4_3_u02_r7_network.client[24] 	hdistance[24] 	2.8480616218046
scalar tree_4_3_u02_r7_network.client[24] 	downloads[24] 	11814
scalar tree_4_3_u02_r7_network.client[24] 	avg_time[24] 	0.00433333035
scalar tree_4_3_u02_r7_network.client[25] 	hdistance[25] 	2.8419263925729
scalar tree_4_3_u02_r7_network.client[25] 	downloads[25] 	12064
scalar tree_4_3_u02_r7_network.client[25] 	avg_time[25] 	0.004322057782
scalar tree_4_3_u02_r7_network.client[26] 	hdistance[26] 	2.8489038785835
scalar tree_4_3_u02_r7_network.client[26] 	downloads[26] 	11860
scalar tree_4_3_u02_r7_network.client[26] 	avg_time[26] 	0.004335010145
scalar tree_4_3_u02_r7_network.client[27] 	hdistance[27] 	2.8158811815466
scalar tree_4_3_u02_r7_network.client[27] 	downloads[27] 	12052
scalar tree_4_3_u02_r7_network.client[27] 	avg_time[27] 	0.00428907766
scalar tree_4_3_u02_r7_network.client[28] 	hdistance[28] 	2.8797800338409
scalar tree_4_3_u02_r7_network.client[28] 	downloads[28] 	11820
scalar tree_4_3_u02_r7_network.client[28] 	avg_time[28] 	0.004378338859
scalar tree_4_3_u02_r7_network.client[29] 	hdistance[29] 	2.8505261413539
scalar tree_4_3_u02_r7_network.client[29] 	downloads[29] 	12069
scalar tree_4_3_u02_r7_network.client[29] 	avg_time[29] 	0.004340668862
scalar tree_4_3_u02_r7_network.client[30] 	hdistance[30] 	2.81323700382
scalar tree_4_3_u02_r7_network.client[30] 	downloads[30] 	12042
scalar tree_4_3_u02_r7_network.client[30] 	avg_time[30] 	0.004277691705
scalar tree_4_3_u02_r7_network.client[31] 	hdistance[31] 	2.855503647242
scalar tree_4_3_u02_r7_network.client[31] 	downloads[31] 	12201
scalar tree_4_3_u02_r7_network.client[31] 	avg_time[31] 	0.004338329862
scalar tree_4_3_u02_r7_network.client[32] 	hdistance[32] 	2.8234561752988
scalar tree_4_3_u02_r7_network.client[32] 	downloads[32] 	12048
scalar tree_4_3_u02_r7_network.client[32] 	avg_time[32] 	0.00429358771
scalar tree_4_3_u02_r7_network.client[33] 	hdistance[33] 	2.8026250207676
scalar tree_4_3_u02_r7_network.client[33] 	downloads[33] 	12038
scalar tree_4_3_u02_r7_network.client[33] 	avg_time[33] 	0.004262166765
scalar tree_4_3_u02_r7_network.client[34] 	hdistance[34] 	2.8452131669319
scalar tree_4_3_u02_r7_network.client[34] 	downloads[34] 	11939
scalar tree_4_3_u02_r7_network.client[34] 	avg_time[34] 	0.004331850629
scalar tree_4_3_u02_r7_network.client[35] 	hdistance[35] 	2.8911497105046
scalar tree_4_3_u02_r7_network.client[35] 	downloads[35] 	12090
scalar tree_4_3_u02_r7_network.client[35] 	avg_time[35] 	0.004398011868
scalar tree_4_3_u02_r7_network.client[36] 	hdistance[36] 	2.8260255771466
scalar tree_4_3_u02_r7_network.client[36] 	downloads[36] 	12042
scalar tree_4_3_u02_r7_network.client[36] 	avg_time[36] 	0.004297377617
scalar tree_4_3_u02_r7_network.client[37] 	hdistance[37] 	2.880466231297
scalar tree_4_3_u02_r7_network.client[37] 	downloads[37] 	12097
scalar tree_4_3_u02_r7_network.client[37] 	avg_time[37] 	0.004379560374
scalar tree_4_3_u02_r7_network.client[38] 	hdistance[38] 	2.8471252907943
scalar tree_4_3_u02_r7_network.client[38] 	downloads[38] 	12036
scalar tree_4_3_u02_r7_network.client[38] 	avg_time[38] 	0.004330489432
scalar tree_4_3_u02_r7_network.client[39] 	hdistance[39] 	2.8788284518828
scalar tree_4_3_u02_r7_network.client[39] 	downloads[39] 	11950
scalar tree_4_3_u02_r7_network.client[39] 	avg_time[39] 	0.004388281548
