version 2
run General-40-20160819-20:00:33-9589
attr a 0.9
attr cd fix0.01
attr configname General
attr cr lru
attr datetime 20160819-20:00:33
attr experiment General
attr fsize 1
attr inifile hw5115/scenario_A/SPR-FIX0.01.ini
attr iterationvars "$name=tree_4_3, $un=02, $rep=1, $cd=fix0.01, $cr=lru, $fsize=1, $a=0.9, $sl=spr, $ttl=1000, $variance=0.05"
attr iterationvars2 "$name=tree_4_3, $un=02, $rep=1, $cd=fix0.01, $cr=lru, $fsize=1, $a=0.9, $sl=spr, $ttl=1000, $variance=0.05, $repetition=0"
attr measurement "$name=tree_4_3, $un=02, $rep=1, $cd=fix0.01, $cr=lru, $fsize=1, $a=0.9, $sl=spr, $ttl=1000, $variance=0.05"
attr name tree_4_3
attr network networks.${name}_u${un}_r${rep}_network
attr processid 9589
attr rep 1
attr repetition 0
attr replication #0
attr resultdir results
attr runnumber 40
attr seedset 1
attr sl spr
attr ttl 1000
attr un 02
attr variance 0.05

scalar . 	a 	0.9
scalar . 	fsize 	1
scalar . 	rep 	1
scalar . 	ttl 	1000
scalar . 	un 	02
scalar . 	variance 	0.05
scalar tree_4_3_u02_r1_network.content_distribution 	repo-0 	0
scalar tree_4_3_u02_r1_network.content_distribution 	client-0 	13
scalar tree_4_3_u02_r1_network.content_distribution 	client-1 	14
scalar tree_4_3_u02_r1_network.content_distribution 	client-2 	15
scalar tree_4_3_u02_r1_network.content_distribution 	client-3 	16
scalar tree_4_3_u02_r1_network.content_distribution 	client-4 	17
scalar tree_4_3_u02_r1_network.content_distribution 	client-5 	18
scalar tree_4_3_u02_r1_network.content_distribution 	client-6 	19
scalar tree_4_3_u02_r1_network.content_distribution 	client-7 	20
scalar tree_4_3_u02_r1_network.content_distribution 	client-8 	21
scalar tree_4_3_u02_r1_network.content_distribution 	client-9 	22
scalar tree_4_3_u02_r1_network.content_distribution 	client-10 	23
scalar tree_4_3_u02_r1_network.content_distribution 	client-11 	24
scalar tree_4_3_u02_r1_network.content_distribution 	client-12 	25
scalar tree_4_3_u02_r1_network.content_distribution 	client-13 	26
scalar tree_4_3_u02_r1_network.content_distribution 	client-14 	27
scalar tree_4_3_u02_r1_network.content_distribution 	client-15 	28
scalar tree_4_3_u02_r1_network.content_distribution 	client-16 	29
scalar tree_4_3_u02_r1_network.content_distribution 	client-17 	30
scalar tree_4_3_u02_r1_network.content_distribution 	client-18 	31
scalar tree_4_3_u02_r1_network.content_distribution 	client-19 	32
scalar tree_4_3_u02_r1_network.content_distribution 	client-20 	33
scalar tree_4_3_u02_r1_network.content_distribution 	client-21 	34
scalar tree_4_3_u02_r1_network.content_distribution 	client-22 	35
scalar tree_4_3_u02_r1_network.content_distribution 	client-23 	36
scalar tree_4_3_u02_r1_network.content_distribution 	client-24 	37
scalar tree_4_3_u02_r1_network.content_distribution 	client-25 	38
scalar tree_4_3_u02_r1_network.content_distribution 	client-26 	39
scalar tree_4_3_u02_r1_network.content_distribution 	repo-0_card 	100000
scalar tree_4_3_u02_r1_network.content_distribution 	repo-0_price 	0
scalar tree_4_3_u02_r1_network.statistics 	stabilization_time 	2813.3
scalar tree_4_3_u02_r1_network.statistics 	p_hit 	0.17960732881758
scalar tree_4_3_u02_r1_network.statistics 	interests 	25580.175
scalar tree_4_3_u02_r1_network.statistics 	data 	17500.7
scalar tree_4_3_u02_r1_network.statistics 	hdistance 	2.8481608431683
scalar tree_4_3_u02_r1_network.statistics 	avg_time 	0.004332303592
scalar tree_4_3_u02_r1_network.statistics 	downloads 	323170
scalar tree_4_3_u02_r1_network.statistics 	total_cost 	0
scalar tree_4_3_u02_r1_network.statistics 	total_replicas 	100000
scalar tree_4_3_u02_r1_network.statistics 	inner_hit 	0.31804932388526
scalar tree_4_3_u02_r1_network.node[0].core_layer 	interests[0] 	224652
scalar tree_4_3_u02_r1_network.node[0].core_layer 	repo_load[0] 	220386
scalar tree_4_3_u02_r1_network.node[0].core_layer 	data[0] 	0
scalar tree_4_3_u02_r1_network.node[0].core_layer 	repo_int[0] 	220386
scalar tree_4_3_u02_r1_network.node[0].content_store 	p_hit[0] 	0.018989370225949
scalar tree_4_3_u02_r1_network.node[0].content_store 	hits[0] 	4266
scalar tree_4_3_u02_r1_network.node[0].content_store 	misses[0] 	220386
scalar tree_4_3_u02_r1_network.node[0].content_store 	decision_yes[0] 	2174
scalar tree_4_3_u02_r1_network.node[0].content_store 	decision_no[0] 	218212
scalar tree_4_3_u02_r1_network.node[0].content_store 	decision_ratio[0] 	0.0098645104498471
scalar tree_4_3_u02_r1_network.node[1].core_layer 	interests[1] 	111418
scalar tree_4_3_u02_r1_network.node[1].core_layer 	data[1] 	108183
scalar tree_4_3_u02_r1_network.node[1].content_store 	p_hit[1] 	0.028998905024323
scalar tree_4_3_u02_r1_network.node[1].content_store 	hits[1] 	3231
scalar tree_4_3_u02_r1_network.node[1].content_store 	misses[1] 	108187
scalar tree_4_3_u02_r1_network.node[1].content_store 	decision_yes[1] 	1050
scalar tree_4_3_u02_r1_network.node[1].content_store 	decision_no[1] 	107133
scalar tree_4_3_u02_r1_network.node[1].content_store 	decision_ratio[1] 	0.0097057763234519
scalar tree_4_3_u02_r1_network.node[2].core_layer 	interests[2] 	94084
scalar tree_4_3_u02_r1_network.node[2].core_layer 	data[2] 	91561
scalar tree_4_3_u02_r1_network.node[2].content_store 	p_hit[2] 	0.026784575485736
scalar tree_4_3_u02_r1_network.node[2].content_store 	hits[2] 	2520
scalar tree_4_3_u02_r1_network.node[2].content_store 	misses[2] 	91564
scalar tree_4_3_u02_r1_network.node[2].content_store 	decision_yes[2] 	914
scalar tree_4_3_u02_r1_network.node[2].content_store 	decision_no[2] 	90647
scalar tree_4_3_u02_r1_network.node[2].content_store 	decision_ratio[2] 	0.0099824160941886
scalar tree_4_3_u02_r1_network.node[3].core_layer 	interests[3] 	25713
scalar tree_4_3_u02_r1_network.node[3].core_layer 	data[3] 	24908
scalar tree_4_3_u02_r1_network.node[3].content_store 	p_hit[3] 	0.031307120911601
scalar tree_4_3_u02_r1_network.node[3].content_store 	hits[3] 	805
scalar tree_4_3_u02_r1_network.node[3].content_store 	misses[3] 	24908
scalar tree_4_3_u02_r1_network.node[3].content_store 	decision_yes[3] 	255
scalar tree_4_3_u02_r1_network.node[3].content_store 	decision_no[3] 	24653
scalar tree_4_3_u02_r1_network.node[3].content_store 	decision_ratio[3] 	0.010237674642685
scalar tree_4_3_u02_r1_network.node[4].core_layer 	interests[4] 	27251
scalar tree_4_3_u02_r1_network.node[4].core_layer 	data[4] 	25753
scalar tree_4_3_u02_r1_network.node[4].content_store 	p_hit[4] 	0.054933763898573
scalar tree_4_3_u02_r1_network.node[4].content_store 	hits[4] 	1497
scalar tree_4_3_u02_r1_network.node[4].content_store 	misses[4] 	25754
scalar tree_4_3_u02_r1_network.node[4].content_store 	decision_yes[4] 	247
scalar tree_4_3_u02_r1_network.node[4].content_store 	decision_no[4] 	25506
scalar tree_4_3_u02_r1_network.node[4].content_store 	decision_ratio[4] 	0.0095911155981827
scalar tree_4_3_u02_r1_network.node[5].core_layer 	interests[5] 	36028
scalar tree_4_3_u02_r1_network.node[5].core_layer 	data[5] 	34152
scalar tree_4_3_u02_r1_network.node[5].content_store 	p_hit[5] 	0.052042855556789
scalar tree_4_3_u02_r1_network.node[5].content_store 	hits[5] 	1875
scalar tree_4_3_u02_r1_network.node[5].content_store 	misses[5] 	34153
scalar tree_4_3_u02_r1_network.node[5].content_store 	decision_yes[5] 	365
scalar tree_4_3_u02_r1_network.node[5].content_store 	decision_no[5] 	33787
scalar tree_4_3_u02_r1_network.node[5].content_store 	decision_ratio[5] 	0.010687514640431
scalar tree_4_3_u02_r1_network.node[6].core_layer 	interests[6] 	18034
scalar tree_4_3_u02_r1_network.node[6].core_layer 	data[6] 	17162
scalar tree_4_3_u02_r1_network.node[6].content_store 	p_hit[6] 	0.048242209160475
scalar tree_4_3_u02_r1_network.node[6].content_store 	hits[6] 	870
scalar tree_4_3_u02_r1_network.node[6].content_store 	misses[6] 	17164
scalar tree_4_3_u02_r1_network.node[6].content_store 	decision_yes[6] 	178
scalar tree_4_3_u02_r1_network.node[6].content_store 	decision_no[6] 	16984
scalar tree_4_3_u02_r1_network.node[6].content_store 	decision_ratio[6] 	0.010371751544109
scalar tree_4_3_u02_r1_network.node[7].core_layer 	interests[7] 	27285
scalar tree_4_3_u02_r1_network.node[7].core_layer 	data[7] 	25704
scalar tree_4_3_u02_r1_network.node[7].content_store 	p_hit[7] 	0.057943925233645
scalar tree_4_3_u02_r1_network.node[7].content_store 	hits[7] 	1581
scalar tree_4_3_u02_r1_network.node[7].content_store 	misses[7] 	25704
scalar tree_4_3_u02_r1_network.node[7].content_store 	decision_yes[7] 	236
scalar tree_4_3_u02_r1_network.node[7].content_store 	decision_no[7] 	25468
scalar tree_4_3_u02_r1_network.node[7].content_store 	decision_ratio[7] 	0.0091814503579209
scalar tree_4_3_u02_r1_network.node[8].core_layer 	interests[8] 	27180
scalar tree_4_3_u02_r1_network.node[8].core_layer 	data[8] 	25739
scalar tree_4_3_u02_r1_network.node[8].content_store 	p_hit[8] 	0.053016924208977
scalar tree_4_3_u02_r1_network.node[8].content_store 	hits[8] 	1441
scalar tree_4_3_u02_r1_network.node[8].content_store 	misses[8] 	25739
scalar tree_4_3_u02_r1_network.node[8].content_store 	decision_yes[8] 	287
scalar tree_4_3_u02_r1_network.node[8].content_store 	decision_no[8] 	25452
scalar tree_4_3_u02_r1_network.node[8].content_store 	decision_ratio[8] 	0.011150394343215
scalar tree_4_3_u02_r1_network.node[9].core_layer 	interests[9] 	27124
scalar tree_4_3_u02_r1_network.node[9].core_layer 	data[9] 	25650
scalar tree_4_3_u02_r1_network.node[9].content_store 	p_hit[9] 	0.054306149535467
scalar tree_4_3_u02_r1_network.node[9].content_store 	hits[9] 	1473
scalar tree_4_3_u02_r1_network.node[9].content_store 	misses[9] 	25651
scalar tree_4_3_u02_r1_network.node[9].content_store 	decision_yes[9] 	224
scalar tree_4_3_u02_r1_network.node[9].content_store 	decision_no[9] 	25426
scalar tree_4_3_u02_r1_network.node[9].content_store 	decision_ratio[9] 	0.0087329434697856
scalar tree_4_3_u02_r1_network.node[10].core_layer 	interests[10] 	36114
scalar tree_4_3_u02_r1_network.node[10].core_layer 	data[10] 	34351
scalar tree_4_3_u02_r1_network.node[10].content_store 	p_hit[10] 	0.048845323143379
scalar tree_4_3_u02_r1_network.node[10].content_store 	hits[10] 	1764
scalar tree_4_3_u02_r1_network.node[10].content_store 	misses[10] 	34350
scalar tree_4_3_u02_r1_network.node[10].content_store 	decision_yes[10] 	337
scalar tree_4_3_u02_r1_network.node[10].content_store 	decision_no[10] 	34014
scalar tree_4_3_u02_r1_network.node[10].content_store 	decision_ratio[10] 	0.0098104858664959
scalar tree_4_3_u02_r1_network.node[11].core_layer 	interests[11] 	17961
scalar tree_4_3_u02_r1_network.node[11].core_layer 	data[11] 	16990
scalar tree_4_3_u02_r1_network.node[11].content_store 	p_hit[11] 	0.054061577863148
scalar tree_4_3_u02_r1_network.node[11].content_store 	hits[11] 	971
scalar tree_4_3_u02_r1_network.node[11].content_store 	misses[11] 	16990
scalar tree_4_3_u02_r1_network.node[11].content_store 	decision_yes[11] 	165
scalar tree_4_3_u02_r1_network.node[11].content_store 	decision_no[11] 	16825
scalar tree_4_3_u02_r1_network.node[11].content_store 	decision_ratio[11] 	0.0097115950559152
scalar tree_4_3_u02_r1_network.node[12].core_layer 	interests[12] 	27186
scalar tree_4_3_u02_r1_network.node[12].core_layer 	data[12] 	25713
scalar tree_4_3_u02_r1_network.node[12].content_store 	p_hit[12] 	0.054182299713088
scalar tree_4_3_u02_r1_network.node[12].content_store 	hits[12] 	1473
scalar tree_4_3_u02_r1_network.node[12].content_store 	misses[12] 	25713
scalar tree_4_3_u02_r1_network.node[12].content_store 	decision_yes[12] 	250
scalar tree_4_3_u02_r1_network.node[12].content_store 	decision_no[12] 	25463
scalar tree_4_3_u02_r1_network.node[12].content_store 	decision_ratio[12] 	0.0097227083576401
scalar tree_4_3_u02_r1_network.node[13].core_layer 	interests[13] 	11881
scalar tree_4_3_u02_r1_network.node[13].core_layer 	data[13] 	9084
scalar tree_4_3_u02_r1_network.node[13].content_store 	p_hit[13] 	0.23541789411666
scalar tree_4_3_u02_r1_network.node[13].content_store 	hits[13] 	2797
scalar tree_4_3_u02_r1_network.node[13].content_store 	misses[13] 	9084
scalar tree_4_3_u02_r1_network.node[13].content_store 	decision_yes[13] 	87
scalar tree_4_3_u02_r1_network.node[13].content_store 	decision_no[13] 	8997
scalar tree_4_3_u02_r1_network.node[13].content_store 	decision_ratio[13] 	0.0095772787318362
scalar tree_4_3_u02_r1_network.node[14].core_layer 	interests[14] 	12124
scalar tree_4_3_u02_r1_network.node[14].core_layer 	data[14] 	9182
scalar tree_4_3_u02_r1_network.node[14].content_store 	p_hit[14] 	0.24265918838667
scalar tree_4_3_u02_r1_network.node[14].content_store 	hits[14] 	2942
scalar tree_4_3_u02_r1_network.node[14].content_store 	misses[14] 	9182
scalar tree_4_3_u02_r1_network.node[14].content_store 	decision_yes[14] 	95
scalar tree_4_3_u02_r1_network.node[14].content_store 	decision_no[14] 	9087
scalar tree_4_3_u02_r1_network.node[14].content_store 	decision_ratio[14] 	0.010346329775648
scalar tree_4_3_u02_r1_network.node[15].core_layer 	interests[15] 	11949
scalar tree_4_3_u02_r1_network.node[15].core_layer 	data[15] 	8985
scalar tree_4_3_u02_r1_network.node[15].content_store 	p_hit[15] 	0.24797054146791
scalar tree_4_3_u02_r1_network.node[15].content_store 	hits[15] 	2963
scalar tree_4_3_u02_r1_network.node[15].content_store 	misses[15] 	8986
scalar tree_4_3_u02_r1_network.node[15].content_store 	decision_yes[15] 	77
scalar tree_4_3_u02_r1_network.node[15].content_store 	decision_no[15] 	8908
scalar tree_4_3_u02_r1_network.node[15].content_store 	decision_ratio[15] 	0.0085698386199221
scalar tree_4_3_u02_r1_network.node[16].core_layer 	interests[16] 	11787
scalar tree_4_3_u02_r1_network.node[16].core_layer 	data[16] 	8857
scalar tree_4_3_u02_r1_network.node[16].content_store 	p_hit[16] 	0.24866378213286
scalar tree_4_3_u02_r1_network.node[16].content_store 	hits[16] 	2931
scalar tree_4_3_u02_r1_network.node[16].content_store 	misses[16] 	8856
scalar tree_4_3_u02_r1_network.node[16].content_store 	decision_yes[16] 	89
scalar tree_4_3_u02_r1_network.node[16].content_store 	decision_no[16] 	8768
scalar tree_4_3_u02_r1_network.node[16].content_store 	decision_ratio[16] 	0.010048549170148
scalar tree_4_3_u02_r1_network.node[17].core_layer 	interests[17] 	11915
scalar tree_4_3_u02_r1_network.node[17].core_layer 	data[17] 	8912
scalar tree_4_3_u02_r1_network.node[17].content_store 	p_hit[17] 	0.25186739404112
scalar tree_4_3_u02_r1_network.node[17].content_store 	hits[17] 	3001
scalar tree_4_3_u02_r1_network.node[17].content_store 	misses[17] 	8914
scalar tree_4_3_u02_r1_network.node[17].content_store 	decision_yes[17] 	86
scalar tree_4_3_u02_r1_network.node[17].content_store 	decision_no[17] 	8826
scalar tree_4_3_u02_r1_network.node[17].content_store 	decision_ratio[17] 	0.0096499102333932
scalar tree_4_3_u02_r1_network.node[18].core_layer 	interests[18] 	11908
scalar tree_4_3_u02_r1_network.node[18].core_layer 	data[18] 	9105
scalar tree_4_3_u02_r1_network.node[18].content_store 	p_hit[18] 	0.23530399731273
scalar tree_4_3_u02_r1_network.node[18].content_store 	hits[18] 	2802
scalar tree_4_3_u02_r1_network.node[18].content_store 	misses[18] 	9106
scalar tree_4_3_u02_r1_network.node[18].content_store 	decision_yes[18] 	96
scalar tree_4_3_u02_r1_network.node[18].content_store 	decision_no[18] 	9009
scalar tree_4_3_u02_r1_network.node[18].content_store 	decision_ratio[18] 	0.010543657331137
scalar tree_4_3_u02_r1_network.node[19].core_layer 	interests[19] 	11889
scalar tree_4_3_u02_r1_network.node[19].core_layer 	data[19] 	9008
scalar tree_4_3_u02_r1_network.node[19].content_store 	p_hit[19] 	0.24224072672218
scalar tree_4_3_u02_r1_network.node[19].content_store 	hits[19] 	2880
scalar tree_4_3_u02_r1_network.node[19].content_store 	misses[19] 	9009
scalar tree_4_3_u02_r1_network.node[19].content_store 	decision_yes[19] 	85
scalar tree_4_3_u02_r1_network.node[19].content_store 	decision_no[19] 	8923
scalar tree_4_3_u02_r1_network.node[19].content_store 	decision_ratio[19] 	0.0094360568383659
scalar tree_4_3_u02_r1_network.node[20].core_layer 	interests[20] 	11941
scalar tree_4_3_u02_r1_network.node[20].core_layer 	data[20] 	9154
scalar tree_4_3_u02_r1_network.node[20].content_store 	p_hit[20] 	0.23339753789465
scalar tree_4_3_u02_r1_network.node[20].content_store 	hits[20] 	2787
scalar tree_4_3_u02_r1_network.node[20].content_store 	misses[20] 	9154
scalar tree_4_3_u02_r1_network.node[20].content_store 	decision_yes[20] 	86
scalar tree_4_3_u02_r1_network.node[20].content_store 	decision_no[20] 	9068
scalar tree_4_3_u02_r1_network.node[20].content_store 	decision_ratio[20] 	0.0093948000873935
scalar tree_4_3_u02_r1_network.node[21].core_layer 	interests[21] 	11963
scalar tree_4_3_u02_r1_network.node[21].core_layer 	data[21] 	9025
scalar tree_4_3_u02_r1_network.node[21].content_store 	p_hit[21] 	0.24550697985455
scalar tree_4_3_u02_r1_network.node[21].content_store 	hits[21] 	2937
scalar tree_4_3_u02_r1_network.node[21].content_store 	misses[21] 	9026
scalar tree_4_3_u02_r1_network.node[21].content_store 	decision_yes[21] 	91
scalar tree_4_3_u02_r1_network.node[21].content_store 	decision_no[21] 	8934
scalar tree_4_3_u02_r1_network.node[21].content_store 	decision_ratio[21] 	0.010083102493075
scalar tree_4_3_u02_r1_network.node[22].core_layer 	interests[22] 	11926
scalar tree_4_3_u02_r1_network.node[22].core_layer 	data[22] 	9105
scalar tree_4_3_u02_r1_network.node[22].content_store 	p_hit[22] 	0.23654200905584
scalar tree_4_3_u02_r1_network.node[22].content_store 	hits[22] 	2821
scalar tree_4_3_u02_r1_network.node[22].content_store 	misses[22] 	9105
scalar tree_4_3_u02_r1_network.node[22].content_store 	decision_yes[22] 	84
scalar tree_4_3_u02_r1_network.node[22].content_store 	decision_no[22] 	9021
scalar tree_4_3_u02_r1_network.node[22].content_store 	decision_ratio[22] 	0.0092257001647446
scalar tree_4_3_u02_r1_network.node[23].core_layer 	interests[23] 	11867
scalar tree_4_3_u02_r1_network.node[23].core_layer 	data[23] 	9019
scalar tree_4_3_u02_r1_network.node[23].content_store 	p_hit[23] 	0.23999325861633
scalar tree_4_3_u02_r1_network.node[23].content_store 	hits[23] 	2848
scalar tree_4_3_u02_r1_network.node[23].content_store 	misses[23] 	9019
scalar tree_4_3_u02_r1_network.node[23].content_store 	decision_yes[23] 	99
scalar tree_4_3_u02_r1_network.node[23].content_store 	decision_no[23] 	8920
scalar tree_4_3_u02_r1_network.node[23].content_store 	decision_ratio[23] 	0.010976826699191
scalar tree_4_3_u02_r1_network.node[24].core_layer 	interests[24] 	12120
scalar tree_4_3_u02_r1_network.node[24].core_layer 	data[24] 	9161
scalar tree_4_3_u02_r1_network.node[24].content_store 	p_hit[24] 	0.24405940594059
scalar tree_4_3_u02_r1_network.node[24].content_store 	hits[24] 	2958
scalar tree_4_3_u02_r1_network.node[24].content_store 	misses[24] 	9162
scalar tree_4_3_u02_r1_network.node[24].content_store 	decision_yes[24] 	80
scalar tree_4_3_u02_r1_network.node[24].content_store 	decision_no[24] 	9081
scalar tree_4_3_u02_r1_network.node[24].content_store 	decision_ratio[24] 	0.0087326711057745
scalar tree_4_3_u02_r1_network.node[25].core_layer 	interests[25] 	12046
scalar tree_4_3_u02_r1_network.node[25].core_layer 	data[25] 	9009
scalar tree_4_3_u02_r1_network.node[25].content_store 	p_hit[25] 	0.25211688527312
scalar tree_4_3_u02_r1_network.node[25].content_store 	hits[25] 	3037
scalar tree_4_3_u02_r1_network.node[25].content_store 	misses[25] 	9009
scalar tree_4_3_u02_r1_network.node[25].content_store 	decision_yes[25] 	95
scalar tree_4_3_u02_r1_network.node[25].content_store 	decision_no[25] 	8914
scalar tree_4_3_u02_r1_network.node[25].content_store 	decision_ratio[25] 	0.010545010545011
scalar tree_4_3_u02_r1_network.node[26].core_layer 	interests[26] 	12147
scalar tree_4_3_u02_r1_network.node[26].core_layer 	data[26] 	9173
scalar tree_4_3_u02_r1_network.node[26].content_store 	p_hit[26] 	0.24483411541945
scalar tree_4_3_u02_r1_network.node[26].content_store 	hits[26] 	2974
scalar tree_4_3_u02_r1_network.node[26].content_store 	misses[26] 	9173
scalar tree_4_3_u02_r1_network.node[26].content_store 	decision_yes[26] 	100
scalar tree_4_3_u02_r1_network.node[26].content_store 	decision_no[26] 	9073
scalar tree_4_3_u02_r1_network.node[26].content_store 	decision_ratio[26] 	0.010901558922926
scalar tree_4_3_u02_r1_network.node[27].core_layer 	interests[27] 	11910
scalar tree_4_3_u02_r1_network.node[27].core_layer 	data[27] 	8998
scalar tree_4_3_u02_r1_network.node[27].content_store 	p_hit[27] 	0.24450041981528
scalar tree_4_3_u02_r1_network.node[27].content_store 	hits[27] 	2912
scalar tree_4_3_u02_r1_network.node[27].content_store 	misses[27] 	8998
scalar tree_4_3_u02_r1_network.node[27].content_store 	decision_yes[27] 	88
scalar tree_4_3_u02_r1_network.node[27].content_store 	decision_no[27] 	8910
scalar tree_4_3_u02_r1_network.node[27].content_store 	decision_ratio[27] 	0.0097799511002445
scalar tree_4_3_u02_r1_network.node[28].core_layer 	interests[28] 	12073
scalar tree_4_3_u02_r1_network.node[28].core_layer 	data[28] 	9058
scalar tree_4_3_u02_r1_network.node[28].content_store 	p_hit[28] 	0.24964797481985
scalar tree_4_3_u02_r1_network.node[28].content_store 	hits[28] 	3014
scalar tree_4_3_u02_r1_network.node[28].content_store 	misses[28] 	9059
scalar tree_4_3_u02_r1_network.node[28].content_store 	decision_yes[28] 	82
scalar tree_4_3_u02_r1_network.node[28].content_store 	decision_no[28] 	8976
scalar tree_4_3_u02_r1_network.node[28].content_store 	decision_ratio[28] 	0.0090527710311327
scalar tree_4_3_u02_r1_network.node[29].core_layer 	interests[29] 	11938
scalar tree_4_3_u02_r1_network.node[29].core_layer 	data[29] 	8994
scalar tree_4_3_u02_r1_network.node[29].content_store 	p_hit[29] 	0.24660747193835
scalar tree_4_3_u02_r1_network.node[29].content_store 	hits[29] 	2944
scalar tree_4_3_u02_r1_network.node[29].content_store 	misses[29] 	8994
scalar tree_4_3_u02_r1_network.node[29].content_store 	decision_yes[29] 	87
scalar tree_4_3_u02_r1_network.node[29].content_store 	decision_no[29] 	8907
scalar tree_4_3_u02_r1_network.node[29].content_store 	decision_ratio[29] 	0.0096731154102735
scalar tree_4_3_u02_r1_network.node[30].core_layer 	interests[30] 	11960
scalar tree_4_3_u02_r1_network.node[30].core_layer 	data[30] 	9071
scalar tree_4_3_u02_r1_network.node[30].content_store 	p_hit[30] 	0.24155518394649
scalar tree_4_3_u02_r1_network.node[30].content_store 	hits[30] 	2889
scalar tree_4_3_u02_r1_network.node[30].content_store 	misses[30] 	9071
scalar tree_4_3_u02_r1_network.node[30].content_store 	decision_yes[30] 	93
scalar tree_4_3_u02_r1_network.node[30].content_store 	decision_no[30] 	8978
scalar tree_4_3_u02_r1_network.node[30].content_store 	decision_ratio[30] 	0.010252452871789
scalar tree_4_3_u02_r1_network.node[31].core_layer 	interests[31] 	11972
scalar tree_4_3_u02_r1_network.node[31].core_layer 	data[31] 	8855
scalar tree_4_3_u02_r1_network.node[31].content_store 	p_hit[31] 	0.26035750083528
scalar tree_4_3_u02_r1_network.node[31].content_store 	hits[31] 	3117
scalar tree_4_3_u02_r1_network.node[31].content_store 	misses[31] 	8855
scalar tree_4_3_u02_r1_network.node[31].content_store 	decision_yes[31] 	82
scalar tree_4_3_u02_r1_network.node[31].content_store 	decision_no[31] 	8773
scalar tree_4_3_u02_r1_network.node[31].content_store 	decision_ratio[31] 	0.0092603049124788
scalar tree_4_3_u02_r1_network.node[32].core_layer 	interests[32] 	11947
scalar tree_4_3_u02_r1_network.node[32].core_layer 	data[32] 	8950
scalar tree_4_3_u02_r1_network.node[32].content_store 	p_hit[32] 	0.25094165899389
scalar tree_4_3_u02_r1_network.node[32].content_store 	hits[32] 	2998
scalar tree_4_3_u02_r1_network.node[32].content_store 	misses[32] 	8949
scalar tree_4_3_u02_r1_network.node[32].content_store 	decision_yes[32] 	98
scalar tree_4_3_u02_r1_network.node[32].content_store 	decision_no[32] 	8852
scalar tree_4_3_u02_r1_network.node[32].content_store 	decision_ratio[32] 	0.010949720670391
scalar tree_4_3_u02_r1_network.node[33].core_layer 	interests[33] 	12222
scalar tree_4_3_u02_r1_network.node[33].core_layer 	data[33] 	9262
scalar tree_4_3_u02_r1_network.node[33].content_store 	p_hit[33] 	0.24218622156766
scalar tree_4_3_u02_r1_network.node[33].content_store 	hits[33] 	2960
scalar tree_4_3_u02_r1_network.node[33].content_store 	misses[33] 	9262
scalar tree_4_3_u02_r1_network.node[33].content_store 	decision_yes[33] 	101
scalar tree_4_3_u02_r1_network.node[33].content_store 	decision_no[33] 	9161
scalar tree_4_3_u02_r1_network.node[33].content_store 	decision_ratio[33] 	0.010904772187433
scalar tree_4_3_u02_r1_network.node[34].core_layer 	interests[34] 	11947
scalar tree_4_3_u02_r1_network.node[34].core_layer 	data[34] 	9048
scalar tree_4_3_u02_r1_network.node[34].content_store 	p_hit[34] 	0.24265505984766
scalar tree_4_3_u02_r1_network.node[34].content_store 	hits[34] 	2899
scalar tree_4_3_u02_r1_network.node[34].content_store 	misses[34] 	9048
scalar tree_4_3_u02_r1_network.node[34].content_store 	decision_yes[34] 	82
scalar tree_4_3_u02_r1_network.node[34].content_store 	decision_no[34] 	8966
scalar tree_4_3_u02_r1_network.node[34].content_store 	decision_ratio[34] 	0.0090627763041556
scalar tree_4_3_u02_r1_network.node[35].core_layer 	interests[35] 	11971
scalar tree_4_3_u02_r1_network.node[35].core_layer 	data[35] 	9053
scalar tree_4_3_u02_r1_network.node[35].content_store 	p_hit[35] 	0.24375574304569
scalar tree_4_3_u02_r1_network.node[35].content_store 	hits[35] 	2918
scalar tree_4_3_u02_r1_network.node[35].content_store 	misses[35] 	9053
scalar tree_4_3_u02_r1_network.node[35].content_store 	decision_yes[35] 	88
scalar tree_4_3_u02_r1_network.node[35].content_store 	decision_no[35] 	8965
scalar tree_4_3_u02_r1_network.node[35].content_store 	decision_ratio[35] 	0.0097205346294046
scalar tree_4_3_u02_r1_network.node[36].core_layer 	interests[36] 	11937
scalar tree_4_3_u02_r1_network.node[36].core_layer 	data[36] 	8908
scalar tree_4_3_u02_r1_network.node[36].content_store 	p_hit[36] 	0.25374884811929
scalar tree_4_3_u02_r1_network.node[36].content_store 	hits[36] 	3029
scalar tree_4_3_u02_r1_network.node[36].content_store 	misses[36] 	8908
scalar tree_4_3_u02_r1_network.node[36].content_store 	decision_yes[36] 	73
scalar tree_4_3_u02_r1_network.node[36].content_store 	decision_no[36] 	8835
scalar tree_4_3_u02_r1_network.node[36].content_store 	decision_ratio[36] 	0.0081948810058374
scalar tree_4_3_u02_r1_network.node[37].core_layer 	interests[37] 	11877
scalar tree_4_3_u02_r1_network.node[37].core_layer 	data[37] 	9020
scalar tree_4_3_u02_r1_network.node[37].content_store 	p_hit[37] 	0.24054896017513
scalar tree_4_3_u02_r1_network.node[37].content_store 	hits[37] 	2857
scalar tree_4_3_u02_r1_network.node[37].content_store 	misses[37] 	9020
scalar tree_4_3_u02_r1_network.node[37].content_store 	decision_yes[37] 	97
scalar tree_4_3_u02_r1_network.node[37].content_store 	decision_no[37] 	8923
scalar tree_4_3_u02_r1_network.node[37].content_store 	decision_ratio[37] 	0.010753880266075
scalar tree_4_3_u02_r1_network.node[38].core_layer 	interests[38] 	11999
scalar tree_4_3_u02_r1_network.node[38].core_layer 	data[38] 	9111
scalar tree_4_3_u02_r1_network.node[38].content_store 	p_hit[38] 	0.24068672389366
scalar tree_4_3_u02_r1_network.node[38].content_store 	hits[38] 	2888
scalar tree_4_3_u02_r1_network.node[38].content_store 	misses[38] 	9111
scalar tree_4_3_u02_r1_network.node[38].content_store 	decision_yes[38] 	77
scalar tree_4_3_u02_r1_network.node[38].content_store 	decision_no[38] 	9034
scalar tree_4_3_u02_r1_network.node[38].content_store 	decision_ratio[38] 	0.0084513225771046
scalar tree_4_3_u02_r1_network.node[39].core_layer 	interests[39] 	11961
scalar tree_4_3_u02_r1_network.node[39].core_layer 	data[39] 	9055
scalar tree_4_3_u02_r1_network.node[39].content_store 	p_hit[39] 	0.24287266950924
scalar tree_4_3_u02_r1_network.node[39].content_store 	hits[39] 	2905
scalar tree_4_3_u02_r1_network.node[39].content_store 	misses[39] 	9056
scalar tree_4_3_u02_r1_network.node[39].content_store 	decision_yes[39] 	98
scalar tree_4_3_u02_r1_network.node[39].content_store 	decision_no[39] 	8957
scalar tree_4_3_u02_r1_network.node[39].content_store 	decision_ratio[39] 	0.010822749861955
scalar tree_4_3_u02_r1_network.client[13] 	hdistance[13] 	2.8736638330107
scalar tree_4_3_u02_r1_network.client[13] 	downloads[13] 	11881
scalar tree_4_3_u02_r1_network.client[13] 	avg_time[13] 	0.004370961173
scalar tree_4_3_u02_r1_network.client[14] 	hdistance[14] 	2.8414714615638
scalar tree_4_3_u02_r1_network.client[14] 	downloads[14] 	12124
scalar tree_4_3_u02_r1_network.client[14] 	avg_time[14] 	0.004324672491
scalar tree_4_3_u02_r1_network.client[15] 	hdistance[15] 	2.8454971543354
scalar tree_4_3_u02_r1_network.client[15] 	downloads[15] 	11948
scalar tree_4_3_u02_r1_network.client[15] 	avg_time[15] 	0.004327960759
scalar tree_4_3_u02_r1_network.client[16] 	hdistance[16] 	2.8324567356634
scalar tree_4_3_u02_r1_network.client[16] 	downloads[16] 	11788
scalar tree_4_3_u02_r1_network.client[16] 	avg_time[16] 	0.004313259566
scalar tree_4_3_u02_r1_network.client[17] 	hdistance[17] 	2.8290103248552
scalar tree_4_3_u02_r1_network.client[17] 	downloads[17] 	11913
scalar tree_4_3_u02_r1_network.client[17] 	avg_time[17] 	0.00430441379
scalar tree_4_3_u02_r1_network.client[18] 	hdistance[18] 	2.8707482993197
scalar tree_4_3_u02_r1_network.client[18] 	downloads[18] 	11907
scalar tree_4_3_u02_r1_network.client[18] 	avg_time[18] 	0.004371147216
scalar tree_4_3_u02_r1_network.client[19] 	hdistance[19] 	2.8662516823688
scalar tree_4_3_u02_r1_network.client[19] 	downloads[19] 	11888
scalar tree_4_3_u02_r1_network.client[19] 	avg_time[19] 	0.004358942961
scalar tree_4_3_u02_r1_network.client[20] 	hdistance[20] 	2.8855204756721
scalar tree_4_3_u02_r1_network.client[20] 	downloads[20] 	11941
scalar tree_4_3_u02_r1_network.client[20] 	avg_time[20] 	0.004389586803
scalar tree_4_3_u02_r1_network.client[21] 	hdistance[21] 	2.8514462464471
scalar tree_4_3_u02_r1_network.client[21] 	downloads[21] 	11962
scalar tree_4_3_u02_r1_network.client[21] 	avg_time[21] 	0.004335337237
scalar tree_4_3_u02_r1_network.client[22] 	hdistance[22] 	2.8457990944156
scalar tree_4_3_u02_r1_network.client[22] 	downloads[22] 	11926
scalar tree_4_3_u02_r1_network.client[22] 	avg_time[22] 	0.004336572564
scalar tree_4_3_u02_r1_network.client[23] 	hdistance[23] 	2.871913710289
scalar tree_4_3_u02_r1_network.client[23] 	downloads[23] 	11867
scalar tree_4_3_u02_r1_network.client[23] 	avg_time[23] 	0.004368919282
scalar tree_4_3_u02_r1_network.client[24] 	hdistance[24] 	2.8375278488324
scalar tree_4_3_u02_r1_network.client[24] 	downloads[24] 	12119
scalar tree_4_3_u02_r1_network.client[24] 	avg_time[24] 	0.004316689771
scalar tree_4_3_u02_r1_network.client[25] 	hdistance[25] 	2.8363772206542
scalar tree_4_3_u02_r1_network.client[25] 	downloads[25] 	12046
scalar tree_4_3_u02_r1_network.client[25] 	avg_time[25] 	0.00430918623
scalar tree_4_3_u02_r1_network.client[26] 	hdistance[26] 	2.8495101671195
scalar tree_4_3_u02_r1_network.client[26] 	downloads[26] 	12147
scalar tree_4_3_u02_r1_network.client[26] 	avg_time[26] 	0.004332260057
scalar tree_4_3_u02_r1_network.client[27] 	hdistance[27] 	2.8421494542401
scalar tree_4_3_u02_r1_network.client[27] 	downloads[27] 	11910
scalar tree_4_3_u02_r1_network.client[27] 	avg_time[27] 	0.0043220272
scalar tree_4_3_u02_r1_network.client[28] 	hdistance[28] 	2.8205765407555
scalar tree_4_3_u02_r1_network.client[28] 	downloads[28] 	12072
scalar tree_4_3_u02_r1_network.client[28] 	avg_time[28] 	0.00429091812
scalar tree_4_3_u02_r1_network.client[29] 	hdistance[29] 	2.8483833137879
scalar tree_4_3_u02_r1_network.client[29] 	downloads[29] 	11938
scalar tree_4_3_u02_r1_network.client[29] 	avg_time[29] 	0.004332213449
scalar tree_4_3_u02_r1_network.client[30] 	hdistance[30] 	2.8573578595318
scalar tree_4_3_u02_r1_network.client[30] 	downloads[30] 	11960
scalar tree_4_3_u02_r1_network.client[30] 	avg_time[30] 	0.004343976925
scalar tree_4_3_u02_r1_network.client[31] 	hdistance[31] 	2.8093885733378
scalar tree_4_3_u02_r1_network.client[31] 	downloads[31] 	11972
scalar tree_4_3_u02_r1_network.client[31] 	avg_time[31] 	0.004269827432
scalar tree_4_3_u02_r1_network.client[32] 	hdistance[32] 	2.842567793773
scalar tree_4_3_u02_r1_network.client[32] 	downloads[32] 	11948
scalar tree_4_3_u02_r1_network.client[32] 	avg_time[32] 	0.00432323104
scalar tree_4_3_u02_r1_network.client[33] 	hdistance[33] 	2.8590247095402
scalar tree_4_3_u02_r1_network.client[33] 	downloads[33] 	12222
scalar tree_4_3_u02_r1_network.client[33] 	avg_time[33] 	0.004344457769
scalar tree_4_3_u02_r1_network.client[34] 	hdistance[34] 	2.854189336235
scalar tree_4_3_u02_r1_network.client[34] 	downloads[34] 	11947
scalar tree_4_3_u02_r1_network.client[34] 	avg_time[34] 	0.004339998653
scalar tree_4_3_u02_r1_network.client[35] 	hdistance[35] 	2.8601620583076
scalar tree_4_3_u02_r1_network.client[35] 	downloads[35] 	11971
scalar tree_4_3_u02_r1_network.client[35] 	avg_time[35] 	0.004348338837
scalar tree_4_3_u02_r1_network.client[36] 	hdistance[36] 	2.8079919577783
scalar tree_4_3_u02_r1_network.client[36] 	downloads[36] 	11937
scalar tree_4_3_u02_r1_network.client[36] 	avg_time[36] 	0.004270416717
scalar tree_4_3_u02_r1_network.client[37] 	hdistance[37] 	2.8421318514776
scalar tree_4_3_u02_r1_network.client[37] 	downloads[37] 	11877
scalar tree_4_3_u02_r1_network.client[37] 	avg_time[37] 	0.004328362774
scalar tree_4_3_u02_r1_network.client[38] 	hdistance[38] 	2.8479039919993
scalar tree_4_3_u02_r1_network.client[38] 	downloads[38] 	11999
scalar tree_4_3_u02_r1_network.client[38] 	avg_time[38] 	0.00433585832
scalar tree_4_3_u02_r1_network.client[39] 	hdistance[39] 	2.8713210702341
scalar tree_4_3_u02_r1_network.client[39] 	downloads[39] 	11960
scalar tree_4_3_u02_r1_network.client[39] 	avg_time[39] 	0.004362659868
