version 2
run General-53-20160819-20:28:39-9589
attr a 0.9
attr cd fix0.01
attr configname General
attr cr lru
attr datetime 20160819-20:28:39
attr experiment General
attr fsize 1
attr inifile hw5115/scenario_A/SPR-FIX0.01.ini
attr iterationvars "$name=tree_4_3, $un=02, $rep=14, $cd=fix0.01, $cr=lru, $fsize=1, $a=0.9, $sl=spr, $ttl=1000, $variance=0.05"
attr iterationvars2 "$name=tree_4_3, $un=02, $rep=14, $cd=fix0.01, $cr=lru, $fsize=1, $a=0.9, $sl=spr, $ttl=1000, $variance=0.05, $repetition=0"
attr measurement "$name=tree_4_3, $un=02, $rep=14, $cd=fix0.01, $cr=lru, $fsize=1, $a=0.9, $sl=spr, $ttl=1000, $variance=0.05"
attr name tree_4_3
attr network networks.${name}_u${un}_r${rep}_network
attr processid 9589
attr rep 14
attr repetition 0
attr replication #0
attr resultdir results
attr runnumber 53
attr seedset 14
attr sl spr
attr ttl 1000
attr un 02
attr variance 0.05

scalar . 	a 	0.9
scalar . 	fsize 	1
scalar . 	rep 	14
scalar . 	ttl 	1000
scalar . 	un 	02
scalar . 	variance 	0.05
scalar tree_4_3_u02_r14_network.content_distribution 	repo-0 	0
scalar tree_4_3_u02_r14_network.content_distribution 	client-0 	13
scalar tree_4_3_u02_r14_network.content_distribution 	client-1 	14
scalar tree_4_3_u02_r14_network.content_distribution 	client-2 	15
scalar tree_4_3_u02_r14_network.content_distribution 	client-3 	16
scalar tree_4_3_u02_r14_network.content_distribution 	client-4 	17
scalar tree_4_3_u02_r14_network.content_distribution 	client-5 	18
scalar tree_4_3_u02_r14_network.content_distribution 	client-6 	19
scalar tree_4_3_u02_r14_network.content_distribution 	client-7 	20
scalar tree_4_3_u02_r14_network.content_distribution 	client-8 	21
scalar tree_4_3_u02_r14_network.content_distribution 	client-9 	22
scalar tree_4_3_u02_r14_network.content_distribution 	client-10 	23
scalar tree_4_3_u02_r14_network.content_distribution 	client-11 	24
scalar tree_4_3_u02_r14_network.content_distribution 	client-12 	25
scalar tree_4_3_u02_r14_network.content_distribution 	client-13 	26
scalar tree_4_3_u02_r14_network.content_distribution 	client-14 	27
scalar tree_4_3_u02_r14_network.content_distribution 	client-15 	28
scalar tree_4_3_u02_r14_network.content_distribution 	client-16 	29
scalar tree_4_3_u02_r14_network.content_distribution 	client-17 	30
scalar tree_4_3_u02_r14_network.content_distribution 	client-18 	31
scalar tree_4_3_u02_r14_network.content_distribution 	client-19 	32
scalar tree_4_3_u02_r14_network.content_distribution 	client-20 	33
scalar tree_4_3_u02_r14_network.content_distribution 	client-21 	34
scalar tree_4_3_u02_r14_network.content_distribution 	client-22 	35
scalar tree_4_3_u02_r14_network.content_distribution 	client-23 	36
scalar tree_4_3_u02_r14_network.content_distribution 	client-24 	37
scalar tree_4_3_u02_r14_network.content_distribution 	client-25 	38
scalar tree_4_3_u02_r14_network.content_distribution 	client-26 	39
scalar tree_4_3_u02_r14_network.content_distribution 	repo-0_card 	100000
scalar tree_4_3_u02_r14_network.content_distribution 	repo-0_price 	0
scalar tree_4_3_u02_r14_network.statistics 	stabilization_time 	2419.3
scalar tree_4_3_u02_r14_network.statistics 	p_hit 	0.1787295200498
scalar tree_4_3_u02_r14_network.statistics 	interests 	25652.425
scalar tree_4_3_u02_r14_network.statistics 	data 	17552.25
scalar tree_4_3_u02_r14_network.statistics 	hdistance 	2.8475400460941
scalar tree_4_3_u02_r14_network.statistics 	avg_time 	0.004334024012
scalar tree_4_3_u02_r14_network.statistics 	downloads 	323995
scalar tree_4_3_u02_r14_network.statistics 	total_cost 	0
scalar tree_4_3_u02_r14_network.statistics 	total_replicas 	100000
scalar tree_4_3_u02_r14_network.statistics 	inner_hit 	0.31952036296856
scalar tree_4_3_u02_r14_network.node[0].core_layer 	interests[0] 	224820
scalar tree_4_3_u02_r14_network.node[0].core_layer 	repo_load[0] 	220472
scalar tree_4_3_u02_r14_network.node[0].core_layer 	data[0] 	0
scalar tree_4_3_u02_r14_network.node[0].core_layer 	repo_int[0] 	220472
scalar tree_4_3_u02_r14_network.node[0].content_store 	p_hit[0] 	0.019339916377546
scalar tree_4_3_u02_r14_network.node[0].content_store 	hits[0] 	4348
scalar tree_4_3_u02_r14_network.node[0].content_store 	misses[0] 	220472
scalar tree_4_3_u02_r14_network.node[0].content_store 	decision_yes[0] 	2199
scalar tree_4_3_u02_r14_network.node[0].content_store 	decision_no[0] 	218273
scalar tree_4_3_u02_r14_network.node[0].content_store 	decision_ratio[0] 	0.009974055662397
scalar tree_4_3_u02_r14_network.node[1].core_layer 	interests[1] 	77293
scalar tree_4_3_u02_r14_network.node[1].core_layer 	data[1] 	75066
scalar tree_4_3_u02_r14_network.node[1].content_store 	p_hit[1] 	0.028812440971369
scalar tree_4_3_u02_r14_network.node[1].content_store 	hits[1] 	2227
scalar tree_4_3_u02_r14_network.node[1].content_store 	misses[1] 	75066
scalar tree_4_3_u02_r14_network.node[1].content_store 	decision_yes[1] 	666
scalar tree_4_3_u02_r14_network.node[1].content_store 	decision_no[1] 	74400
scalar tree_4_3_u02_r14_network.node[1].content_store 	decision_ratio[1] 	0.0088721924706259
scalar tree_4_3_u02_r14_network.node[2].core_layer 	interests[2] 	76856
scalar tree_4_3_u02_r14_network.node[2].core_layer 	data[2] 	74559
scalar tree_4_3_u02_r14_network.node[2].content_store 	p_hit[2] 	0.029861038825856
scalar tree_4_3_u02_r14_network.node[2].content_store 	hits[2] 	2295
scalar tree_4_3_u02_r14_network.node[2].content_store 	misses[2] 	74561
scalar tree_4_3_u02_r14_network.node[2].content_store 	decision_yes[2] 	760
scalar tree_4_3_u02_r14_network.node[2].content_store 	decision_no[2] 	73799
scalar tree_4_3_u02_r14_network.node[2].content_store 	decision_ratio[2] 	0.010193269759519
scalar tree_4_3_u02_r14_network.node[3].core_layer 	interests[3] 	77504
scalar tree_4_3_u02_r14_network.node[3].core_layer 	data[3] 	75194
scalar tree_4_3_u02_r14_network.node[3].content_store 	p_hit[3] 	0.029766205615194
scalar tree_4_3_u02_r14_network.node[3].content_store 	hits[3] 	2307
scalar tree_4_3_u02_r14_network.node[3].content_store 	misses[3] 	75197
scalar tree_4_3_u02_r14_network.node[3].content_store 	decision_yes[3] 	740
scalar tree_4_3_u02_r14_network.node[3].content_store 	decision_no[3] 	74454
scalar tree_4_3_u02_r14_network.node[3].content_store 	decision_ratio[3] 	0.0098412107348991
scalar tree_4_3_u02_r14_network.node[4].core_layer 	interests[4] 	27296
scalar tree_4_3_u02_r14_network.node[4].core_layer 	data[4] 	25758
scalar tree_4_3_u02_r14_network.node[4].content_store 	p_hit[4] 	0.056345252051583
scalar tree_4_3_u02_r14_network.node[4].content_store 	hits[4] 	1538
scalar tree_4_3_u02_r14_network.node[4].content_store 	misses[4] 	25758
scalar tree_4_3_u02_r14_network.node[4].content_store 	decision_yes[4] 	241
scalar tree_4_3_u02_r14_network.node[4].content_store 	decision_no[4] 	25517
scalar tree_4_3_u02_r14_network.node[4].content_store 	decision_ratio[4] 	0.0093563164841991
scalar tree_4_3_u02_r14_network.node[5].core_layer 	interests[5] 	27377
scalar tree_4_3_u02_r14_network.node[5].core_layer 	data[5] 	25857
scalar tree_4_3_u02_r14_network.node[5].content_store 	p_hit[5] 	0.05552105782226
scalar tree_4_3_u02_r14_network.node[5].content_store 	hits[5] 	1520
scalar tree_4_3_u02_r14_network.node[5].content_store 	misses[5] 	25857
scalar tree_4_3_u02_r14_network.node[5].content_store 	decision_yes[5] 	245
scalar tree_4_3_u02_r14_network.node[5].content_store 	decision_no[5] 	25612
scalar tree_4_3_u02_r14_network.node[5].content_store 	decision_ratio[5] 	0.0094751904706656
scalar tree_4_3_u02_r14_network.node[6].core_layer 	interests[6] 	27068
scalar tree_4_3_u02_r14_network.node[6].core_layer 	data[6] 	25678
scalar tree_4_3_u02_r14_network.node[6].content_store 	p_hit[6] 	0.051352150140387
scalar tree_4_3_u02_r14_network.node[6].content_store 	hits[6] 	1390
scalar tree_4_3_u02_r14_network.node[6].content_store 	misses[6] 	25678
scalar tree_4_3_u02_r14_network.node[6].content_store 	decision_yes[6] 	273
scalar tree_4_3_u02_r14_network.node[6].content_store 	decision_no[6] 	25405
scalar tree_4_3_u02_r14_network.node[6].content_store 	decision_ratio[6] 	0.01063166913311
scalar tree_4_3_u02_r14_network.node[7].core_layer 	interests[7] 	36209
scalar tree_4_3_u02_r14_network.node[7].core_layer 	data[7] 	34144
scalar tree_4_3_u02_r14_network.node[7].content_store 	p_hit[7] 	0.056974785274379
scalar tree_4_3_u02_r14_network.node[7].content_store 	hits[7] 	2063
scalar tree_4_3_u02_r14_network.node[7].content_store 	misses[7] 	34146
scalar tree_4_3_u02_r14_network.node[7].content_store 	decision_yes[7] 	338
scalar tree_4_3_u02_r14_network.node[7].content_store 	decision_no[7] 	33806
scalar tree_4_3_u02_r14_network.node[7].content_store 	decision_ratio[7] 	0.0098992502343018
scalar tree_4_3_u02_r14_network.node[8].core_layer 	interests[8] 	17944
scalar tree_4_3_u02_r14_network.node[8].core_layer 	data[8] 	16999
scalar tree_4_3_u02_r14_network.node[8].content_store 	p_hit[8] 	0.052552385198395
scalar tree_4_3_u02_r14_network.node[8].content_store 	hits[8] 	943
scalar tree_4_3_u02_r14_network.node[8].content_store 	misses[8] 	17001
scalar tree_4_3_u02_r14_network.node[8].content_store 	decision_yes[8] 	177
scalar tree_4_3_u02_r14_network.node[8].content_store 	decision_no[8] 	16822
scalar tree_4_3_u02_r14_network.node[8].content_store 	decision_ratio[8] 	0.010412377198659
scalar tree_4_3_u02_r14_network.node[9].core_layer 	interests[9] 	27215
scalar tree_4_3_u02_r14_network.node[9].core_layer 	data[9] 	25712
scalar tree_4_3_u02_r14_network.node[9].content_store 	p_hit[9] 	0.055226896931839
scalar tree_4_3_u02_r14_network.node[9].content_store 	hits[9] 	1503
scalar tree_4_3_u02_r14_network.node[9].content_store 	misses[9] 	25712
scalar tree_4_3_u02_r14_network.node[9].content_store 	decision_yes[9] 	251
scalar tree_4_3_u02_r14_network.node[9].content_store 	decision_no[9] 	25461
scalar tree_4_3_u02_r14_network.node[9].content_store 	decision_ratio[9] 	0.0097619788425638
scalar tree_4_3_u02_r14_network.node[10].core_layer 	interests[10] 	36757
scalar tree_4_3_u02_r14_network.node[10].core_layer 	data[10] 	34550
scalar tree_4_3_u02_r14_network.node[10].content_store 	p_hit[10] 	0.059988573605028
scalar tree_4_3_u02_r14_network.node[10].content_store 	hits[10] 	2205
scalar tree_4_3_u02_r14_network.node[10].content_store 	misses[10] 	34552
scalar tree_4_3_u02_r14_network.node[10].content_store 	decision_yes[10] 	378
scalar tree_4_3_u02_r14_network.node[10].content_store 	decision_no[10] 	34172
scalar tree_4_3_u02_r14_network.node[10].content_store 	decision_ratio[10] 	0.010940665701881
scalar tree_4_3_u02_r14_network.node[11].core_layer 	interests[11] 	27414
scalar tree_4_3_u02_r14_network.node[11].core_layer 	data[11] 	25738
scalar tree_4_3_u02_r14_network.node[11].content_store 	p_hit[11] 	0.061136645509594
scalar tree_4_3_u02_r14_network.node[11].content_store 	hits[11] 	1676
scalar tree_4_3_u02_r14_network.node[11].content_store 	misses[11] 	25738
scalar tree_4_3_u02_r14_network.node[11].content_store 	decision_yes[11] 	246
scalar tree_4_3_u02_r14_network.node[11].content_store 	decision_no[11] 	25492
scalar tree_4_3_u02_r14_network.node[11].content_store 	decision_ratio[11] 	0.0095578522029684
scalar tree_4_3_u02_r14_network.node[12].core_layer 	interests[12] 	18343
scalar tree_4_3_u02_r14_network.node[12].core_layer 	data[12] 	17215
scalar tree_4_3_u02_r14_network.node[12].content_store 	p_hit[12] 	0.061494848170964
scalar tree_4_3_u02_r14_network.node[12].content_store 	hits[12] 	1128
scalar tree_4_3_u02_r14_network.node[12].content_store 	misses[12] 	17215
scalar tree_4_3_u02_r14_network.node[12].content_store 	decision_yes[12] 	146
scalar tree_4_3_u02_r14_network.node[12].content_store 	decision_no[12] 	17069
scalar tree_4_3_u02_r14_network.node[12].content_store 	decision_ratio[12] 	0.0084809758931165
scalar tree_4_3_u02_r14_network.node[13].core_layer 	interests[13] 	12037
scalar tree_4_3_u02_r14_network.node[13].core_layer 	data[13] 	9103
scalar tree_4_3_u02_r14_network.node[13].content_store 	p_hit[13] 	0.2437484423029
scalar tree_4_3_u02_r14_network.node[13].content_store 	hits[13] 	2934
scalar tree_4_3_u02_r14_network.node[13].content_store 	misses[13] 	9103
scalar tree_4_3_u02_r14_network.node[13].content_store 	decision_yes[13] 	96
scalar tree_4_3_u02_r14_network.node[13].content_store 	decision_no[13] 	9007
scalar tree_4_3_u02_r14_network.node[13].content_store 	decision_ratio[13] 	0.010545973854773
scalar tree_4_3_u02_r14_network.node[14].core_layer 	interests[14] 	12132
scalar tree_4_3_u02_r14_network.node[14].core_layer 	data[14] 	9181
scalar tree_4_3_u02_r14_network.node[14].content_store 	p_hit[14] 	0.24324101549621
scalar tree_4_3_u02_r14_network.node[14].content_store 	hits[14] 	2951
scalar tree_4_3_u02_r14_network.node[14].content_store 	misses[14] 	9181
scalar tree_4_3_u02_r14_network.node[14].content_store 	decision_yes[14] 	83
scalar tree_4_3_u02_r14_network.node[14].content_store 	decision_no[14] 	9098
scalar tree_4_3_u02_r14_network.node[14].content_store 	decision_ratio[14] 	0.0090404095414443
scalar tree_4_3_u02_r14_network.node[15].core_layer 	interests[15] 	11961
scalar tree_4_3_u02_r14_network.node[15].core_layer 	data[15] 	9012
scalar tree_4_3_u02_r14_network.node[15].content_store 	p_hit[15] 	0.24655129169802
scalar tree_4_3_u02_r14_network.node[15].content_store 	hits[15] 	2949
scalar tree_4_3_u02_r14_network.node[15].content_store 	misses[15] 	9012
scalar tree_4_3_u02_r14_network.node[15].content_store 	decision_yes[15] 	93
scalar tree_4_3_u02_r14_network.node[15].content_store 	decision_no[15] 	8919
scalar tree_4_3_u02_r14_network.node[15].content_store 	decision_ratio[15] 	0.010319573901465
scalar tree_4_3_u02_r14_network.node[16].core_layer 	interests[16] 	11962
scalar tree_4_3_u02_r14_network.node[16].core_layer 	data[16] 	9120
scalar tree_4_3_u02_r14_network.node[16].content_store 	p_hit[16] 	0.23750208995151
scalar tree_4_3_u02_r14_network.node[16].content_store 	hits[16] 	2841
scalar tree_4_3_u02_r14_network.node[16].content_store 	misses[16] 	9121
scalar tree_4_3_u02_r14_network.node[16].content_store 	decision_yes[16] 	84
scalar tree_4_3_u02_r14_network.node[16].content_store 	decision_no[16] 	9036
scalar tree_4_3_u02_r14_network.node[16].content_store 	decision_ratio[16] 	0.0092105263157895
scalar tree_4_3_u02_r14_network.node[17].core_layer 	interests[17] 	12083
scalar tree_4_3_u02_r14_network.node[17].core_layer 	data[17] 	9208
scalar tree_4_3_u02_r14_network.node[17].content_store 	p_hit[17] 	0.23785483737482
scalar tree_4_3_u02_r14_network.node[17].content_store 	hits[17] 	2874
scalar tree_4_3_u02_r14_network.node[17].content_store 	misses[17] 	9209
scalar tree_4_3_u02_r14_network.node[17].content_store 	decision_yes[17] 	81
scalar tree_4_3_u02_r14_network.node[17].content_store 	decision_no[17] 	9127
scalar tree_4_3_u02_r14_network.node[17].content_store 	decision_ratio[17] 	0.0087966985230235
scalar tree_4_3_u02_r14_network.node[18].core_layer 	interests[18] 	12025
scalar tree_4_3_u02_r14_network.node[18].core_layer 	data[18] 	9049
scalar tree_4_3_u02_r14_network.node[18].content_store 	p_hit[18] 	0.24748440748441
scalar tree_4_3_u02_r14_network.node[18].content_store 	hits[18] 	2976
scalar tree_4_3_u02_r14_network.node[18].content_store 	misses[18] 	9049
scalar tree_4_3_u02_r14_network.node[18].content_store 	decision_yes[18] 	112
scalar tree_4_3_u02_r14_network.node[18].content_store 	decision_no[18] 	8937
scalar tree_4_3_u02_r14_network.node[18].content_store 	decision_ratio[18] 	0.012377058238479
scalar tree_4_3_u02_r14_network.node[19].core_layer 	interests[19] 	11907
scalar tree_4_3_u02_r14_network.node[19].core_layer 	data[19] 	9117
scalar tree_4_3_u02_r14_network.node[19].content_store 	p_hit[19] 	0.23431594860166
scalar tree_4_3_u02_r14_network.node[19].content_store 	hits[19] 	2790
scalar tree_4_3_u02_r14_network.node[19].content_store 	misses[19] 	9117
scalar tree_4_3_u02_r14_network.node[19].content_store 	decision_yes[19] 	81
scalar tree_4_3_u02_r14_network.node[19].content_store 	decision_no[19] 	9036
scalar tree_4_3_u02_r14_network.node[19].content_store 	decision_ratio[19] 	0.0088845014807502
scalar tree_4_3_u02_r14_network.node[20].core_layer 	interests[20] 	12011
scalar tree_4_3_u02_r14_network.node[20].core_layer 	data[20] 	9002
scalar tree_4_3_u02_r14_network.node[20].content_store 	p_hit[20] 	0.25052035634002
scalar tree_4_3_u02_r14_network.node[20].content_store 	hits[20] 	3009
scalar tree_4_3_u02_r14_network.node[20].content_store 	misses[20] 	9002
scalar tree_4_3_u02_r14_network.node[20].content_store 	decision_yes[20] 	105
scalar tree_4_3_u02_r14_network.node[20].content_store 	decision_no[20] 	8897
scalar tree_4_3_u02_r14_network.node[20].content_store 	decision_ratio[20] 	0.011664074650078
scalar tree_4_3_u02_r14_network.node[21].core_layer 	interests[21] 	12020
scalar tree_4_3_u02_r14_network.node[21].core_layer 	data[21] 	8949
scalar tree_4_3_u02_r14_network.node[21].content_store 	p_hit[21] 	0.25549084858569
scalar tree_4_3_u02_r14_network.node[21].content_store 	hits[21] 	3071
scalar tree_4_3_u02_r14_network.node[21].content_store 	misses[21] 	8949
scalar tree_4_3_u02_r14_network.node[21].content_store 	decision_yes[21] 	85
scalar tree_4_3_u02_r14_network.node[21].content_store 	decision_no[21] 	8864
scalar tree_4_3_u02_r14_network.node[21].content_store 	decision_ratio[21] 	0.0094982679629009
scalar tree_4_3_u02_r14_network.node[22].core_layer 	interests[22] 	11877
scalar tree_4_3_u02_r14_network.node[22].core_layer 	data[22] 	8971
scalar tree_4_3_u02_r14_network.node[22].content_store 	p_hit[22] 	0.24467458112318
scalar tree_4_3_u02_r14_network.node[22].content_store 	hits[22] 	2906
scalar tree_4_3_u02_r14_network.node[22].content_store 	misses[22] 	8971
scalar tree_4_3_u02_r14_network.node[22].content_store 	decision_yes[22] 	96
scalar tree_4_3_u02_r14_network.node[22].content_store 	decision_no[22] 	8875
scalar tree_4_3_u02_r14_network.node[22].content_store 	decision_ratio[22] 	0.01070114814402
scalar tree_4_3_u02_r14_network.node[23].core_layer 	interests[23] 	12095
scalar tree_4_3_u02_r14_network.node[23].core_layer 	data[23] 	9113
scalar tree_4_3_u02_r14_network.node[23].content_store 	p_hit[23] 	0.24654816039686
scalar tree_4_3_u02_r14_network.node[23].content_store 	hits[23] 	2982
scalar tree_4_3_u02_r14_network.node[23].content_store 	misses[23] 	9113
scalar tree_4_3_u02_r14_network.node[23].content_store 	decision_yes[23] 	76
scalar tree_4_3_u02_r14_network.node[23].content_store 	decision_no[23] 	9037
scalar tree_4_3_u02_r14_network.node[23].content_store 	decision_ratio[23] 	0.0083397344452979
scalar tree_4_3_u02_r14_network.node[24].core_layer 	interests[24] 	12086
scalar tree_4_3_u02_r14_network.node[24].core_layer 	data[24] 	9137
scalar tree_4_3_u02_r14_network.node[24].content_store 	p_hit[24] 	0.24400132384577
scalar tree_4_3_u02_r14_network.node[24].content_store 	hits[24] 	2949
scalar tree_4_3_u02_r14_network.node[24].content_store 	misses[24] 	9137
scalar tree_4_3_u02_r14_network.node[24].content_store 	decision_yes[24] 	101
scalar tree_4_3_u02_r14_network.node[24].content_store 	decision_no[24] 	9036
scalar tree_4_3_u02_r14_network.node[24].content_store 	decision_ratio[24] 	0.011053956440845
scalar tree_4_3_u02_r14_network.node[25].core_layer 	interests[25] 	11915
scalar tree_4_3_u02_r14_network.node[25].core_layer 	data[25] 	8988
scalar tree_4_3_u02_r14_network.node[25].content_store 	p_hit[25] 	0.24557280738565
scalar tree_4_3_u02_r14_network.node[25].content_store 	hits[25] 	2926
scalar tree_4_3_u02_r14_network.node[25].content_store 	misses[25] 	8989
scalar tree_4_3_u02_r14_network.node[25].content_store 	decision_yes[25] 	88
scalar tree_4_3_u02_r14_network.node[25].content_store 	decision_no[25] 	8900
scalar tree_4_3_u02_r14_network.node[25].content_store 	decision_ratio[25] 	0.0097908322207388
scalar tree_4_3_u02_r14_network.node[26].core_layer 	interests[26] 	12008
scalar tree_4_3_u02_r14_network.node[26].core_layer 	data[26] 	9027
scalar tree_4_3_u02_r14_network.node[26].content_store 	p_hit[26] 	0.24825116588941
scalar tree_4_3_u02_r14_network.node[26].content_store 	hits[26] 	2981
scalar tree_4_3_u02_r14_network.node[26].content_store 	misses[26] 	9027
scalar tree_4_3_u02_r14_network.node[26].content_store 	decision_yes[26] 	100
scalar tree_4_3_u02_r14_network.node[26].content_store 	decision_no[26] 	8927
scalar tree_4_3_u02_r14_network.node[26].content_store 	decision_ratio[26] 	0.011077877478675
scalar tree_4_3_u02_r14_network.node[27].core_layer 	interests[27] 	11855
scalar tree_4_3_u02_r14_network.node[27].core_layer 	data[27] 	8915
scalar tree_4_3_u02_r14_network.node[27].content_store 	p_hit[27] 	0.24782792070856
scalar tree_4_3_u02_r14_network.node[27].content_store 	hits[27] 	2938
scalar tree_4_3_u02_r14_network.node[27].content_store 	misses[27] 	8917
scalar tree_4_3_u02_r14_network.node[27].content_store 	decision_yes[27] 	98
scalar tree_4_3_u02_r14_network.node[27].content_store 	decision_no[27] 	8817
scalar tree_4_3_u02_r14_network.node[27].content_store 	decision_ratio[27] 	0.010992708917555
scalar tree_4_3_u02_r14_network.node[28].core_layer 	interests[28] 	11988
scalar tree_4_3_u02_r14_network.node[28].core_layer 	data[28] 	9115
scalar tree_4_3_u02_r14_network.node[28].content_store 	p_hit[28] 	0.23965632298966
scalar tree_4_3_u02_r14_network.node[28].content_store 	hits[28] 	2873
scalar tree_4_3_u02_r14_network.node[28].content_store 	misses[28] 	9115
scalar tree_4_3_u02_r14_network.node[28].content_store 	decision_yes[28] 	87
scalar tree_4_3_u02_r14_network.node[28].content_store 	decision_no[28] 	9028
scalar tree_4_3_u02_r14_network.node[28].content_store 	decision_ratio[28] 	0.0095447065277016
scalar tree_4_3_u02_r14_network.node[29].core_layer 	interests[29] 	12087
scalar tree_4_3_u02_r14_network.node[29].core_layer 	data[29] 	9108
scalar tree_4_3_u02_r14_network.node[29].content_store 	p_hit[29] 	0.24646314221891
scalar tree_4_3_u02_r14_network.node[29].content_store 	hits[29] 	2979
scalar tree_4_3_u02_r14_network.node[29].content_store 	misses[29] 	9108
scalar tree_4_3_u02_r14_network.node[29].content_store 	decision_yes[29] 	101
scalar tree_4_3_u02_r14_network.node[29].content_store 	decision_no[29] 	9007
scalar tree_4_3_u02_r14_network.node[29].content_store 	decision_ratio[29] 	0.0110891523935
scalar tree_4_3_u02_r14_network.node[30].core_layer 	interests[30] 	12007
scalar tree_4_3_u02_r14_network.node[30].core_layer 	data[30] 	8992
scalar tree_4_3_u02_r14_network.node[30].content_store 	p_hit[30] 	0.25110352294495
scalar tree_4_3_u02_r14_network.node[30].content_store 	hits[30] 	3015
scalar tree_4_3_u02_r14_network.node[30].content_store 	misses[30] 	8992
scalar tree_4_3_u02_r14_network.node[30].content_store 	decision_yes[30] 	94
scalar tree_4_3_u02_r14_network.node[30].content_store 	decision_no[30] 	8898
scalar tree_4_3_u02_r14_network.node[30].content_store 	decision_ratio[30] 	0.010453736654804
scalar tree_4_3_u02_r14_network.node[31].core_layer 	interests[31] 	12094
scalar tree_4_3_u02_r14_network.node[31].core_layer 	data[31] 	9169
scalar tree_4_3_u02_r14_network.node[31].content_store 	p_hit[31] 	0.24177277989085
scalar tree_4_3_u02_r14_network.node[31].content_store 	hits[31] 	2924
scalar tree_4_3_u02_r14_network.node[31].content_store 	misses[31] 	9170
scalar tree_4_3_u02_r14_network.node[31].content_store 	decision_yes[31] 	90
scalar tree_4_3_u02_r14_network.node[31].content_store 	decision_no[31] 	9079
scalar tree_4_3_u02_r14_network.node[31].content_store 	decision_ratio[31] 	0.0098156832806195
scalar tree_4_3_u02_r14_network.node[32].core_layer 	interests[32] 	11966
scalar tree_4_3_u02_r14_network.node[32].core_layer 	data[32] 	9117
scalar tree_4_3_u02_r14_network.node[32].content_store 	p_hit[32] 	0.23809125856594
scalar tree_4_3_u02_r14_network.node[32].content_store 	hits[32] 	2849
scalar tree_4_3_u02_r14_network.node[32].content_store 	misses[32] 	9117
scalar tree_4_3_u02_r14_network.node[32].content_store 	decision_yes[32] 	83
scalar tree_4_3_u02_r14_network.node[32].content_store 	decision_no[32] 	9034
scalar tree_4_3_u02_r14_network.node[32].content_store 	decision_ratio[32] 	0.0091038718876824
scalar tree_4_3_u02_r14_network.node[33].core_layer 	interests[33] 	11824
scalar tree_4_3_u02_r14_network.node[33].core_layer 	data[33] 	9214
scalar tree_4_3_u02_r14_network.node[33].content_store 	p_hit[33] 	0.22073748308525
scalar tree_4_3_u02_r14_network.node[33].content_store 	hits[33] 	2610
scalar tree_4_3_u02_r14_network.node[33].content_store 	misses[33] 	9214
scalar tree_4_3_u02_r14_network.node[33].content_store 	decision_yes[33] 	96
scalar tree_4_3_u02_r14_network.node[33].content_store 	decision_no[33] 	9118
scalar tree_4_3_u02_r14_network.node[33].content_store 	decision_ratio[33] 	0.010418927718689
scalar tree_4_3_u02_r14_network.node[34].core_layer 	interests[34] 	11850
scalar tree_4_3_u02_r14_network.node[34].core_layer 	data[34] 	9039
scalar tree_4_3_u02_r14_network.node[34].content_store 	p_hit[34] 	0.23721518987342
scalar tree_4_3_u02_r14_network.node[34].content_store 	hits[34] 	2811
scalar tree_4_3_u02_r14_network.node[34].content_store 	misses[34] 	9039
scalar tree_4_3_u02_r14_network.node[34].content_store 	decision_yes[34] 	103
scalar tree_4_3_u02_r14_network.node[34].content_store 	decision_no[34] 	8936
scalar tree_4_3_u02_r14_network.node[34].content_store 	decision_ratio[34] 	0.011395065825866
scalar tree_4_3_u02_r14_network.node[35].core_layer 	interests[35] 	11960
scalar tree_4_3_u02_r14_network.node[35].core_layer 	data[35] 	9114
scalar tree_4_3_u02_r14_network.node[35].content_store 	p_hit[35] 	0.23795986622074
scalar tree_4_3_u02_r14_network.node[35].content_store 	hits[35] 	2846
scalar tree_4_3_u02_r14_network.node[35].content_store 	misses[35] 	9114
scalar tree_4_3_u02_r14_network.node[35].content_store 	decision_yes[35] 	97
scalar tree_4_3_u02_r14_network.node[35].content_store 	decision_no[35] 	9017
scalar tree_4_3_u02_r14_network.node[35].content_store 	decision_ratio[35] 	0.010642966864165
scalar tree_4_3_u02_r14_network.node[36].core_layer 	interests[36] 	12151
scalar tree_4_3_u02_r14_network.node[36].core_layer 	data[36] 	9261
scalar tree_4_3_u02_r14_network.node[36].content_store 	p_hit[36] 	0.23784050695416
scalar tree_4_3_u02_r14_network.node[36].content_store 	hits[36] 	2890
scalar tree_4_3_u02_r14_network.node[36].content_store 	misses[36] 	9261
scalar tree_4_3_u02_r14_network.node[36].content_store 	decision_yes[36] 	92
scalar tree_4_3_u02_r14_network.node[36].content_store 	decision_no[36] 	9169
scalar tree_4_3_u02_r14_network.node[36].content_store 	decision_ratio[36] 	0.009934132383112
scalar tree_4_3_u02_r14_network.node[37].core_layer 	interests[37] 	12172
scalar tree_4_3_u02_r14_network.node[37].core_layer 	data[37] 	9256
scalar tree_4_3_u02_r14_network.node[37].content_store 	p_hit[37] 	0.23956621754847
scalar tree_4_3_u02_r14_network.node[37].content_store 	hits[37] 	2916
scalar tree_4_3_u02_r14_network.node[37].content_store 	misses[37] 	9256
scalar tree_4_3_u02_r14_network.node[37].content_store 	decision_yes[37] 	79
scalar tree_4_3_u02_r14_network.node[37].content_store 	decision_no[37] 	9177
scalar tree_4_3_u02_r14_network.node[37].content_store 	decision_ratio[37] 	0.0085350043215212
scalar tree_4_3_u02_r14_network.node[38].core_layer 	interests[38] 	11964
scalar tree_4_3_u02_r14_network.node[38].core_layer 	data[38] 	9021
scalar tree_4_3_u02_r14_network.node[38].content_store 	p_hit[38] 	0.24598796389168
scalar tree_4_3_u02_r14_network.node[38].content_store 	hits[38] 	2943
scalar tree_4_3_u02_r14_network.node[38].content_store 	misses[38] 	9021
scalar tree_4_3_u02_r14_network.node[38].content_store 	decision_yes[38] 	90
scalar tree_4_3_u02_r14_network.node[38].content_store 	decision_no[38] 	8931
scalar tree_4_3_u02_r14_network.node[38].content_store 	decision_ratio[38] 	0.0099767209843698
scalar tree_4_3_u02_r14_network.node[39].core_layer 	interests[39] 	11964
scalar tree_4_3_u02_r14_network.node[39].core_layer 	data[39] 	9322
scalar tree_4_3_u02_r14_network.node[39].content_store 	p_hit[39] 	0.22082915412905
scalar tree_4_3_u02_r14_network.node[39].content_store 	hits[39] 	2642
scalar tree_4_3_u02_r14_network.node[39].content_store 	misses[39] 	9322
scalar tree_4_3_u02_r14_network.node[39].content_store 	decision_yes[39] 	88
scalar tree_4_3_u02_r14_network.node[39].content_store 	decision_no[39] 	9234
scalar tree_4_3_u02_r14_network.node[39].content_store 	decision_ratio[39] 	0.0094400343273976
scalar tree_4_3_u02_r14_network.client[13] 	hdistance[13] 	2.8389964276813
scalar tree_4_3_u02_r14_network.client[13] 	downloads[13] 	12037
scalar tree_4_3_u02_r14_network.client[13] 	avg_time[13] 	0.004324828783
scalar tree_4_3_u02_r14_network.client[14] 	hdistance[14] 	2.8399274645565
scalar tree_4_3_u02_r14_network.client[14] 	downloads[14] 	12132
scalar tree_4_3_u02_r14_network.client[14] 	avg_time[14] 	0.004321790565
scalar tree_4_3_u02_r14_network.client[15] 	hdistance[15] 	2.8286932530725
scalar tree_4_3_u02_r14_network.client[15] 	downloads[15] 	11961
scalar tree_4_3_u02_r14_network.client[15] 	avg_time[15] 	0.004305322665
scalar tree_4_3_u02_r14_network.client[16] 	hdistance[16] 	2.8546944235432
scalar tree_4_3_u02_r14_network.client[16] 	downloads[16] 	11961
scalar tree_4_3_u02_r14_network.client[16] 	avg_time[16] 	0.004345323101
scalar tree_4_3_u02_r14_network.client[17] 	hdistance[17] 	2.8480384042377
scalar tree_4_3_u02_r14_network.client[17] 	downloads[17] 	12082
scalar tree_4_3_u02_r14_network.client[17] 	avg_time[17] 	0.004338262263
scalar tree_4_3_u02_r14_network.client[18] 	hdistance[18] 	2.8646985446986
scalar tree_4_3_u02_r14_network.client[18] 	downloads[18] 	12025
scalar tree_4_3_u02_r14_network.client[18] 	avg_time[18] 	0.004353926316
scalar tree_4_3_u02_r14_network.client[19] 	hdistance[19] 	2.8668850256152
scalar tree_4_3_u02_r14_network.client[19] 	downloads[19] 	11907
scalar tree_4_3_u02_r14_network.client[19] 	avg_time[19] 	0.004363144755
scalar tree_4_3_u02_r14_network.client[20] 	hdistance[20] 	2.846057780368
scalar tree_4_3_u02_r14_network.client[20] 	downloads[20] 	12011
scalar tree_4_3_u02_r14_network.client[20] 	avg_time[20] 	0.004325032403
scalar tree_4_3_u02_r14_network.client[21] 	hdistance[21] 	2.8230449251248
scalar tree_4_3_u02_r14_network.client[21] 	downloads[21] 	12020
scalar tree_4_3_u02_r14_network.client[21] 	avg_time[21] 	0.004289847257
scalar tree_4_3_u02_r14_network.client[22] 	hdistance[22] 	2.851561842216
scalar tree_4_3_u02_r14_network.client[22] 	downloads[22] 	11877
scalar tree_4_3_u02_r14_network.client[22] 	avg_time[22] 	0.004336429836
scalar tree_4_3_u02_r14_network.client[23] 	hdistance[23] 	2.8458040512608
scalar tree_4_3_u02_r14_network.client[23] 	downloads[23] 	12095
scalar tree_4_3_u02_r14_network.client[23] 	avg_time[23] 	0.004325089953
scalar tree_4_3_u02_r14_network.client[24] 	hdistance[24] 	2.8219427436704
scalar tree_4_3_u02_r14_network.client[24] 	downloads[24] 	12086
scalar tree_4_3_u02_r14_network.client[24] 	avg_time[24] 	0.00430249576
scalar tree_4_3_u02_r14_network.client[25] 	hdistance[25] 	2.8281853281853
scalar tree_4_3_u02_r14_network.client[25] 	downloads[25] 	11914
scalar tree_4_3_u02_r14_network.client[25] 	avg_time[25] 	0.004300097022
scalar tree_4_3_u02_r14_network.client[26] 	hdistance[26] 	2.8262824783478
scalar tree_4_3_u02_r14_network.client[26] 	downloads[26] 	12008
scalar tree_4_3_u02_r14_network.client[26] 	avg_time[26] 	0.004301462655
scalar tree_4_3_u02_r14_network.client[27] 	hdistance[27] 	2.8408841643466
scalar tree_4_3_u02_r14_network.client[27] 	downloads[27] 	11853
scalar tree_4_3_u02_r14_network.client[27] 	avg_time[27] 	0.004320084783
scalar tree_4_3_u02_r14_network.client[28] 	hdistance[28] 	2.8490990990991
scalar tree_4_3_u02_r14_network.client[28] 	downloads[28] 	11988
scalar tree_4_3_u02_r14_network.client[28] 	avg_time[28] 	0.004338668997
scalar tree_4_3_u02_r14_network.client[29] 	hdistance[29] 	2.825266815587
scalar tree_4_3_u02_r14_network.client[29] 	downloads[29] 	12087
scalar tree_4_3_u02_r14_network.client[29] 	avg_time[29] 	0.004302305254
scalar tree_4_3_u02_r14_network.client[30] 	hdistance[30] 	2.8266844340801
scalar tree_4_3_u02_r14_network.client[30] 	downloads[30] 	12007
scalar tree_4_3_u02_r14_network.client[30] 	avg_time[30] 	0.004301321248
scalar tree_4_3_u02_r14_network.client[31] 	hdistance[31] 	2.8450343173737
scalar tree_4_3_u02_r14_network.client[31] 	downloads[31] 	12093
scalar tree_4_3_u02_r14_network.client[31] 	avg_time[31] 	0.00433051183
scalar tree_4_3_u02_r14_network.client[32] 	hdistance[32] 	2.834280461307
scalar tree_4_3_u02_r14_network.client[32] 	downloads[32] 	11966
scalar tree_4_3_u02_r14_network.client[32] 	avg_time[32] 	0.004320404824
scalar tree_4_3_u02_r14_network.client[33] 	hdistance[33] 	2.9111129905277
scalar tree_4_3_u02_r14_network.client[33] 	downloads[33] 	11824
scalar tree_4_3_u02_r14_network.client[33] 	avg_time[33] 	0.004436228427
scalar tree_4_3_u02_r14_network.client[34] 	hdistance[34] 	2.8427848101266
scalar tree_4_3_u02_r14_network.client[34] 	downloads[34] 	11850
scalar tree_4_3_u02_r14_network.client[34] 	avg_time[34] 	0.004334343048
scalar tree_4_3_u02_r14_network.client[35] 	hdistance[35] 	2.8542642140468
scalar tree_4_3_u02_r14_network.client[35] 	downloads[35] 	11960
scalar tree_4_3_u02_r14_network.client[35] 	avg_time[35] 	0.004345481957
scalar tree_4_3_u02_r14_network.client[36] 	hdistance[36] 	2.8657723644144
scalar tree_4_3_u02_r14_network.client[36] 	downloads[36] 	12151
scalar tree_4_3_u02_r14_network.client[36] 	avg_time[36] 	0.004360319352
scalar tree_4_3_u02_r14_network.client[37] 	hdistance[37] 	2.859185014788
scalar tree_4_3_u02_r14_network.client[37] 	downloads[37] 	12172
scalar tree_4_3_u02_r14_network.client[37] 	avg_time[37] 	0.004353537423
scalar tree_4_3_u02_r14_network.client[38] 	hdistance[38] 	2.8558174523571
scalar tree_4_3_u02_r14_network.client[38] 	downloads[38] 	11964
scalar tree_4_3_u02_r14_network.client[38] 	avg_time[38] 	0.004337843897
scalar tree_4_3_u02_r14_network.client[39] 	hdistance[39] 	2.8885824139084
scalar tree_4_3_u02_r14_network.client[39] 	downloads[39] 	11964
scalar tree_4_3_u02_r14_network.client[39] 	avg_time[39] 	0.004404543969
