version 2
run General-43-20160902-19:07:00-4279
attr a 0.9
attr cd ffc0.2
attr configname General
attr cr lru
attr datetime 20160902-19:07:00
attr experiment General
attr fsize 1
attr inifile hw5115/scenario_Y/omnetp.ini
attr iterationvars "$name=tree_4_3, $un=02, $rep=4, $cd=ffc0.2, $cr=lru, $fsize=1, $a=0.9, $sl=nrr, $ttl=1000, $variance=0.05"
attr iterationvars2 "$name=tree_4_3, $un=02, $rep=4, $cd=ffc0.2, $cr=lru, $fsize=1, $a=0.9, $sl=nrr, $ttl=1000, $variance=0.05, $repetition=0"
attr measurement "$name=tree_4_3, $un=02, $rep=4, $cd=ffc0.2, $cr=lru, $fsize=1, $a=0.9, $sl=nrr, $ttl=1000, $variance=0.05"
attr name tree_4_3
attr network networks.${name}_u${un}_r${rep}_network
attr processid 4279
attr rep 4
attr repetition 0
attr replication #0
attr resultdir results
attr runnumber 43
attr seedset 4
attr sl nrr
attr ttl 1000
attr un 02
attr variance 0.05

scalar . 	a 	0.9
scalar . 	fsize 	1
scalar . 	rep 	4
scalar . 	ttl 	1000
scalar . 	un 	02
scalar . 	variance 	0.05
scalar tree_4_3_u02_r4_network.content_distribution 	repo-0 	0
scalar tree_4_3_u02_r4_network.content_distribution 	client-0 	13
scalar tree_4_3_u02_r4_network.content_distribution 	client-1 	14
scalar tree_4_3_u02_r4_network.content_distribution 	client-2 	15
scalar tree_4_3_u02_r4_network.content_distribution 	client-3 	16
scalar tree_4_3_u02_r4_network.content_distribution 	client-4 	17
scalar tree_4_3_u02_r4_network.content_distribution 	client-5 	18
scalar tree_4_3_u02_r4_network.content_distribution 	client-6 	19
scalar tree_4_3_u02_r4_network.content_distribution 	client-7 	20
scalar tree_4_3_u02_r4_network.content_distribution 	client-8 	21
scalar tree_4_3_u02_r4_network.content_distribution 	client-9 	22
scalar tree_4_3_u02_r4_network.content_distribution 	client-10 	23
scalar tree_4_3_u02_r4_network.content_distribution 	client-11 	24
scalar tree_4_3_u02_r4_network.content_distribution 	client-12 	25
scalar tree_4_3_u02_r4_network.content_distribution 	client-13 	26
scalar tree_4_3_u02_r4_network.content_distribution 	client-14 	27
scalar tree_4_3_u02_r4_network.content_distribution 	client-15 	28
scalar tree_4_3_u02_r4_network.content_distribution 	client-16 	29
scalar tree_4_3_u02_r4_network.content_distribution 	client-17 	30
scalar tree_4_3_u02_r4_network.content_distribution 	client-18 	31
scalar tree_4_3_u02_r4_network.content_distribution 	client-19 	32
scalar tree_4_3_u02_r4_network.content_distribution 	client-20 	33
scalar tree_4_3_u02_r4_network.content_distribution 	client-21 	34
scalar tree_4_3_u02_r4_network.content_distribution 	client-22 	35
scalar tree_4_3_u02_r4_network.content_distribution 	client-23 	36
scalar tree_4_3_u02_r4_network.content_distribution 	client-24 	37
scalar tree_4_3_u02_r4_network.content_distribution 	client-25 	38
scalar tree_4_3_u02_r4_network.content_distribution 	client-26 	39
scalar tree_4_3_u02_r4_network.content_distribution 	repo-0_card 	100000
scalar tree_4_3_u02_r4_network.content_distribution 	repo-0_price 	0
scalar tree_4_3_u02_r4_network.statistics 	stabilization_time 	1750.6
scalar tree_4_3_u02_r4_network.statistics 	p_hit 	0.22231399935388
scalar tree_4_3_u02_r4_network.statistics 	interests 	24768.45
scalar tree_4_3_u02_r4_network.statistics 	data 	16667.6
scalar tree_4_3_u02_r4_network.statistics 	hdistance 	2.6505461016142
scalar tree_4_3_u02_r4_network.statistics 	avg_time 	0.004114798733
scalar tree_4_3_u02_r4_network.statistics 	downloads 	324031
scalar tree_4_3_u02_r4_network.statistics 	total_cost 	0
scalar tree_4_3_u02_r4_network.statistics 	total_replicas 	100000
scalar tree_4_3_u02_r4_network.statistics 	inner_hit 	0.40686230638427
scalar tree_4_3_u02_r4_network.node[0].core_layer 	interests[0] 	196404
scalar tree_4_3_u02_r4_network.node[0].core_layer 	repo_load[0] 	192195
scalar tree_4_3_u02_r4_network.node[0].core_layer 	data[0] 	0
scalar tree_4_3_u02_r4_network.node[0].core_layer 	repo_int[0] 	192195
scalar tree_4_3_u02_r4_network.node[0].content_store 	p_hit[0] 	0.021430317101485
scalar tree_4_3_u02_r4_network.node[0].content_store 	hits[0] 	4209
scalar tree_4_3_u02_r4_network.node[0].content_store 	misses[0] 	192195
scalar tree_4_3_u02_r4_network.node[0].content_store 	decision_yes[0] 	187
scalar tree_4_3_u02_r4_network.node[0].content_store 	decision_no[0] 	192008
scalar tree_4_3_u02_r4_network.node[0].content_store 	decision_ratio[0] 	0.00097297016051406
scalar tree_4_3_u02_r4_network.node[1].core_layer 	interests[1] 	70539
scalar tree_4_3_u02_r4_network.node[1].core_layer 	data[1] 	68252
scalar tree_4_3_u02_r4_network.node[1].content_store 	p_hit[1] 	0.032421780858816
scalar tree_4_3_u02_r4_network.node[1].content_store 	hits[1] 	2287
scalar tree_4_3_u02_r4_network.node[1].content_store 	misses[1] 	68252
scalar tree_4_3_u02_r4_network.node[1].content_store 	decision_yes[1] 	73
scalar tree_4_3_u02_r4_network.node[1].content_store 	decision_no[1] 	68179
scalar tree_4_3_u02_r4_network.node[1].content_store 	decision_ratio[1] 	0.0010695657270117
scalar tree_4_3_u02_r4_network.node[2].core_layer 	interests[2] 	69875
scalar tree_4_3_u02_r4_network.node[2].core_layer 	data[2] 	67670
scalar tree_4_3_u02_r4_network.node[2].content_store 	p_hit[2] 	0.031542039355993
scalar tree_4_3_u02_r4_network.node[2].content_store 	hits[2] 	2204
scalar tree_4_3_u02_r4_network.node[2].content_store 	misses[2] 	67671
scalar tree_4_3_u02_r4_network.node[2].content_store 	decision_yes[2] 	69
scalar tree_4_3_u02_r4_network.node[2].content_store 	decision_no[2] 	67601
scalar tree_4_3_u02_r4_network.node[2].content_store 	decision_ratio[2] 	0.0010196542042264
scalar tree_4_3_u02_r4_network.node[3].core_layer 	interests[3] 	72066
scalar tree_4_3_u02_r4_network.node[3].core_layer 	data[3] 	69392
scalar tree_4_3_u02_r4_network.node[3].content_store 	p_hit[3] 	0.037090999916743
scalar tree_4_3_u02_r4_network.node[3].content_store 	hits[3] 	2673
scalar tree_4_3_u02_r4_network.node[3].content_store 	misses[3] 	69393
scalar tree_4_3_u02_r4_network.node[3].content_store 	decision_yes[3] 	107
scalar tree_4_3_u02_r4_network.node[3].content_store 	decision_no[3] 	69285
scalar tree_4_3_u02_r4_network.node[3].content_store 	decision_ratio[3] 	0.001541964491584
scalar tree_4_3_u02_r4_network.node[4].core_layer 	interests[4] 	35448
scalar tree_4_3_u02_r4_network.node[4].core_layer 	data[4] 	32820
scalar tree_4_3_u02_r4_network.node[4].content_store 	p_hit[4] 	0.074136763710223
scalar tree_4_3_u02_r4_network.node[4].content_store 	hits[4] 	2628
scalar tree_4_3_u02_r4_network.node[4].content_store 	misses[4] 	32820
scalar tree_4_3_u02_r4_network.node[4].content_store 	decision_yes[4] 	67
scalar tree_4_3_u02_r4_network.node[4].content_store 	decision_no[4] 	32753
scalar tree_4_3_u02_r4_network.node[4].content_store 	decision_ratio[4] 	0.0020414381474711
scalar tree_4_3_u02_r4_network.node[5].core_layer 	interests[5] 	18579
scalar tree_4_3_u02_r4_network.node[5].core_layer 	data[5] 	16713
scalar tree_4_3_u02_r4_network.node[5].content_store 	p_hit[5] 	0.10043597610205
scalar tree_4_3_u02_r4_network.node[5].content_store 	hits[5] 	1866
scalar tree_4_3_u02_r4_network.node[5].content_store 	misses[5] 	16713
scalar tree_4_3_u02_r4_network.node[5].content_store 	decision_yes[5] 	21
scalar tree_4_3_u02_r4_network.node[5].content_store 	decision_no[5] 	16692
scalar tree_4_3_u02_r4_network.node[5].content_store 	decision_ratio[5] 	0.001256506910788
scalar tree_4_3_u02_r4_network.node[6].core_layer 	interests[6] 	27557
scalar tree_4_3_u02_r4_network.node[6].core_layer 	data[6] 	25056
scalar tree_4_3_u02_r4_network.node[6].content_store 	p_hit[6] 	0.090793627753384
scalar tree_4_3_u02_r4_network.node[6].content_store 	hits[6] 	2502
scalar tree_4_3_u02_r4_network.node[6].content_store 	misses[6] 	25055
scalar tree_4_3_u02_r4_network.node[6].content_store 	decision_yes[6] 	46
scalar tree_4_3_u02_r4_network.node[6].content_store 	decision_no[6] 	25010
scalar tree_4_3_u02_r4_network.node[6].content_store 	decision_ratio[6] 	0.0018358876117497
scalar tree_4_3_u02_r4_network.node[7].core_layer 	interests[7] 	26458
scalar tree_4_3_u02_r4_network.node[7].core_layer 	data[7] 	24459
scalar tree_4_3_u02_r4_network.node[7].content_store 	p_hit[7] 	0.075553707763247
scalar tree_4_3_u02_r4_network.node[7].content_store 	hits[7] 	1999
scalar tree_4_3_u02_r4_network.node[7].content_store 	misses[7] 	24459
scalar tree_4_3_u02_r4_network.node[7].content_store 	decision_yes[7] 	48
scalar tree_4_3_u02_r4_network.node[7].content_store 	decision_no[7] 	24411
scalar tree_4_3_u02_r4_network.node[7].content_store 	decision_ratio[7] 	0.0019624678032626
scalar tree_4_3_u02_r4_network.node[8].core_layer 	interests[8] 	34874
scalar tree_4_3_u02_r4_network.node[8].core_layer 	data[8] 	32401
scalar tree_4_3_u02_r4_network.node[8].content_store 	p_hit[8] 	0.070883752939152
scalar tree_4_3_u02_r4_network.node[8].content_store 	hits[8] 	2472
scalar tree_4_3_u02_r4_network.node[8].content_store 	misses[8] 	32402
scalar tree_4_3_u02_r4_network.node[8].content_store 	decision_yes[8] 	55
scalar tree_4_3_u02_r4_network.node[8].content_store 	decision_no[8] 	32346
scalar tree_4_3_u02_r4_network.node[8].content_store 	decision_ratio[8] 	0.0016974784728866
scalar tree_4_3_u02_r4_network.node[9].core_layer 	interests[9] 	20215
scalar tree_4_3_u02_r4_network.node[9].core_layer 	data[9] 	17130
scalar tree_4_3_u02_r4_network.node[9].content_store 	p_hit[9] 	0.15255998021271
scalar tree_4_3_u02_r4_network.node[9].content_store 	hits[9] 	3084
scalar tree_4_3_u02_r4_network.node[9].content_store 	misses[9] 	17131
scalar tree_4_3_u02_r4_network.node[9].content_store 	decision_yes[9] 	53
scalar tree_4_3_u02_r4_network.node[9].content_store 	decision_no[9] 	17077
scalar tree_4_3_u02_r4_network.node[9].content_store 	decision_ratio[9] 	0.0030939871570344
scalar tree_4_3_u02_r4_network.node[10].core_layer 	interests[10] 	27463
scalar tree_4_3_u02_r4_network.node[10].core_layer 	data[10] 	25261
scalar tree_4_3_u02_r4_network.node[10].content_store 	p_hit[10] 	0.080180606634381
scalar tree_4_3_u02_r4_network.node[10].content_store 	hits[10] 	2202
scalar tree_4_3_u02_r4_network.node[10].content_store 	misses[10] 	25261
scalar tree_4_3_u02_r4_network.node[10].content_store 	decision_yes[10] 	52
scalar tree_4_3_u02_r4_network.node[10].content_store 	decision_no[10] 	25209
scalar tree_4_3_u02_r4_network.node[10].content_store 	decision_ratio[10] 	0.0020585091643245
scalar tree_4_3_u02_r4_network.node[11].core_layer 	interests[11] 	27491
scalar tree_4_3_u02_r4_network.node[11].core_layer 	data[11] 	25136
scalar tree_4_3_u02_r4_network.node[11].content_store 	p_hit[11] 	0.085664399257939
scalar tree_4_3_u02_r4_network.node[11].content_store 	hits[11] 	2355
scalar tree_4_3_u02_r4_network.node[11].content_store 	misses[11] 	25136
scalar tree_4_3_u02_r4_network.node[11].content_store 	decision_yes[11] 	56
scalar tree_4_3_u02_r4_network.node[11].content_store 	decision_no[11] 	25080
scalar tree_4_3_u02_r4_network.node[11].content_store 	decision_ratio[11] 	0.0022278803309994
scalar tree_4_3_u02_r4_network.node[12].core_layer 	interests[12] 	27797
scalar tree_4_3_u02_r4_network.node[12].core_layer 	data[12] 	25442
scalar tree_4_3_u02_r4_network.node[12].content_store 	p_hit[12] 	0.084721372810015
scalar tree_4_3_u02_r4_network.node[12].content_store 	hits[12] 	2355
scalar tree_4_3_u02_r4_network.node[12].content_store 	misses[12] 	25442
scalar tree_4_3_u02_r4_network.node[12].content_store 	decision_yes[12] 	45
scalar tree_4_3_u02_r4_network.node[12].content_store 	decision_no[12] 	25397
scalar tree_4_3_u02_r4_network.node[12].content_store 	decision_ratio[12] 	0.0017687288735162
scalar tree_4_3_u02_r4_network.node[13].core_layer 	interests[13] 	12311
scalar tree_4_3_u02_r4_network.node[13].core_layer 	data[13] 	8618
scalar tree_4_3_u02_r4_network.node[13].content_store 	p_hit[13] 	0.29997563154902
scalar tree_4_3_u02_r4_network.node[13].content_store 	hits[13] 	3693
scalar tree_4_3_u02_r4_network.node[13].content_store 	misses[13] 	8618
scalar tree_4_3_u02_r4_network.node[13].content_store 	decision_yes[13] 	19
scalar tree_4_3_u02_r4_network.node[13].content_store 	decision_no[13] 	8599
scalar tree_4_3_u02_r4_network.node[13].content_store 	decision_ratio[13] 	0.0022046878626131
scalar tree_4_3_u02_r4_network.node[14].core_layer 	interests[14] 	12488
scalar tree_4_3_u02_r4_network.node[14].core_layer 	data[14] 	8815
scalar tree_4_3_u02_r4_network.node[14].content_store 	p_hit[14] 	0.29412235746316
scalar tree_4_3_u02_r4_network.node[14].content_store 	hits[14] 	3673
scalar tree_4_3_u02_r4_network.node[14].content_store 	misses[14] 	8815
scalar tree_4_3_u02_r4_network.node[14].content_store 	decision_yes[14] 	27
scalar tree_4_3_u02_r4_network.node[14].content_store 	decision_no[14] 	8788
scalar tree_4_3_u02_r4_network.node[14].content_store 	decision_ratio[14] 	0.0030629608621668
scalar tree_4_3_u02_r4_network.node[15].core_layer 	interests[15] 	12437
scalar tree_4_3_u02_r4_network.node[15].core_layer 	data[15] 	8792
scalar tree_4_3_u02_r4_network.node[15].content_store 	p_hit[15] 	0.29307710862748
scalar tree_4_3_u02_r4_network.node[15].content_store 	hits[15] 	3645
scalar tree_4_3_u02_r4_network.node[15].content_store 	misses[15] 	8792
scalar tree_4_3_u02_r4_network.node[15].content_store 	decision_yes[15] 	17
scalar tree_4_3_u02_r4_network.node[15].content_store 	decision_no[15] 	8775
scalar tree_4_3_u02_r4_network.node[15].content_store 	decision_ratio[15] 	0.001933575978162
scalar tree_4_3_u02_r4_network.node[16].core_layer 	interests[16] 	12619
scalar tree_4_3_u02_r4_network.node[16].core_layer 	data[16] 	8818
scalar tree_4_3_u02_r4_network.node[16].content_store 	p_hit[16] 	0.3012124574055
scalar tree_4_3_u02_r4_network.node[16].content_store 	hits[16] 	3801
scalar tree_4_3_u02_r4_network.node[16].content_store 	misses[16] 	8818
scalar tree_4_3_u02_r4_network.node[16].content_store 	decision_yes[16] 	22
scalar tree_4_3_u02_r4_network.node[16].content_store 	decision_no[16] 	8796
scalar tree_4_3_u02_r4_network.node[16].content_store 	decision_ratio[16] 	0.0024948968019959
scalar tree_4_3_u02_r4_network.node[17].core_layer 	interests[17] 	12420
scalar tree_4_3_u02_r4_network.node[17].core_layer 	data[17] 	8912
scalar tree_4_3_u02_r4_network.node[17].content_store 	p_hit[17] 	0.28244766505636
scalar tree_4_3_u02_r4_network.node[17].content_store 	hits[17] 	3508
scalar tree_4_3_u02_r4_network.node[17].content_store 	misses[17] 	8912
scalar tree_4_3_u02_r4_network.node[17].content_store 	decision_yes[17] 	18
scalar tree_4_3_u02_r4_network.node[17].content_store 	decision_no[17] 	8894
scalar tree_4_3_u02_r4_network.node[17].content_store 	decision_ratio[17] 	0.0020197486535009
scalar tree_4_3_u02_r4_network.node[18].core_layer 	interests[18] 	12725
scalar tree_4_3_u02_r4_network.node[18].core_layer 	data[18] 	8817
scalar tree_4_3_u02_r4_network.node[18].content_store 	p_hit[18] 	0.30711198428291
scalar tree_4_3_u02_r4_network.node[18].content_store 	hits[18] 	3908
scalar tree_4_3_u02_r4_network.node[18].content_store 	misses[18] 	8817
scalar tree_4_3_u02_r4_network.node[18].content_store 	decision_yes[18] 	14
scalar tree_4_3_u02_r4_network.node[18].content_store 	decision_no[18] 	8803
scalar tree_4_3_u02_r4_network.node[18].content_store 	decision_ratio[18] 	0.0015878416695021
scalar tree_4_3_u02_r4_network.node[19].core_layer 	interests[19] 	12356
scalar tree_4_3_u02_r4_network.node[19].core_layer 	data[19] 	8671
scalar tree_4_3_u02_r4_network.node[19].content_store 	p_hit[19] 	0.29823567497572
scalar tree_4_3_u02_r4_network.node[19].content_store 	hits[19] 	3685
scalar tree_4_3_u02_r4_network.node[19].content_store 	misses[19] 	8671
scalar tree_4_3_u02_r4_network.node[19].content_store 	decision_yes[19] 	18
scalar tree_4_3_u02_r4_network.node[19].content_store 	decision_no[19] 	8653
scalar tree_4_3_u02_r4_network.node[19].content_store 	decision_ratio[19] 	0.0020758851343559
scalar tree_4_3_u02_r4_network.node[20].core_layer 	interests[20] 	12309
scalar tree_4_3_u02_r4_network.node[20].core_layer 	data[20] 	8714
scalar tree_4_3_u02_r4_network.node[20].content_store 	p_hit[20] 	0.29214395970428
scalar tree_4_3_u02_r4_network.node[20].content_store 	hits[20] 	3596
scalar tree_4_3_u02_r4_network.node[20].content_store 	misses[20] 	8713
scalar tree_4_3_u02_r4_network.node[20].content_store 	decision_yes[20] 	23
scalar tree_4_3_u02_r4_network.node[20].content_store 	decision_no[20] 	8691
scalar tree_4_3_u02_r4_network.node[20].content_store 	decision_ratio[20] 	0.0026394308010099
scalar tree_4_3_u02_r4_network.node[21].core_layer 	interests[21] 	12299
scalar tree_4_3_u02_r4_network.node[21].core_layer 	data[21] 	8721
scalar tree_4_3_u02_r4_network.node[21].content_store 	p_hit[21] 	0.29091796080982
scalar tree_4_3_u02_r4_network.node[21].content_store 	hits[21] 	3578
scalar tree_4_3_u02_r4_network.node[21].content_store 	misses[21] 	8721
scalar tree_4_3_u02_r4_network.node[21].content_store 	decision_yes[21] 	23
scalar tree_4_3_u02_r4_network.node[21].content_store 	decision_no[21] 	8698
scalar tree_4_3_u02_r4_network.node[21].content_store 	decision_ratio[21] 	0.0026373122348355
scalar tree_4_3_u02_r4_network.node[22].core_layer 	interests[22] 	12429
scalar tree_4_3_u02_r4_network.node[22].core_layer 	data[22] 	8889
scalar tree_4_3_u02_r4_network.node[22].content_store 	p_hit[22] 	0.28473730790892
scalar tree_4_3_u02_r4_network.node[22].content_store 	hits[22] 	3539
scalar tree_4_3_u02_r4_network.node[22].content_store 	misses[22] 	8890
scalar tree_4_3_u02_r4_network.node[22].content_store 	decision_yes[22] 	26
scalar tree_4_3_u02_r4_network.node[22].content_store 	decision_no[22] 	8863
scalar tree_4_3_u02_r4_network.node[22].content_store 	decision_ratio[22] 	0.002924963437957
scalar tree_4_3_u02_r4_network.node[23].core_layer 	interests[23] 	12317
scalar tree_4_3_u02_r4_network.node[23].core_layer 	data[23] 	8743
scalar tree_4_3_u02_r4_network.node[23].content_store 	p_hit[23] 	0.29016806040432
scalar tree_4_3_u02_r4_network.node[23].content_store 	hits[23] 	3574
scalar tree_4_3_u02_r4_network.node[23].content_store 	misses[23] 	8743
scalar tree_4_3_u02_r4_network.node[23].content_store 	decision_yes[23] 	12
scalar tree_4_3_u02_r4_network.node[23].content_store 	decision_no[23] 	8731
scalar tree_4_3_u02_r4_network.node[23].content_store 	decision_ratio[23] 	0.0013725265927027
scalar tree_4_3_u02_r4_network.node[24].core_layer 	interests[24] 	12486
scalar tree_4_3_u02_r4_network.node[24].core_layer 	data[24] 	8649
scalar tree_4_3_u02_r4_network.node[24].content_store 	p_hit[24] 	0.30730418068236
scalar tree_4_3_u02_r4_network.node[24].content_store 	hits[24] 	3837
scalar tree_4_3_u02_r4_network.node[24].content_store 	misses[24] 	8649
scalar tree_4_3_u02_r4_network.node[24].content_store 	decision_yes[24] 	19
scalar tree_4_3_u02_r4_network.node[24].content_store 	decision_no[24] 	8630
scalar tree_4_3_u02_r4_network.node[24].content_store 	decision_ratio[24] 	0.0021967857555787
scalar tree_4_3_u02_r4_network.node[25].core_layer 	interests[25] 	12441
scalar tree_4_3_u02_r4_network.node[25].core_layer 	data[25] 	8714
scalar tree_4_3_u02_r4_network.node[25].content_store 	p_hit[25] 	0.29957398922916
scalar tree_4_3_u02_r4_network.node[25].content_store 	hits[25] 	3727
scalar tree_4_3_u02_r4_network.node[25].content_store 	misses[25] 	8714
scalar tree_4_3_u02_r4_network.node[25].content_store 	decision_yes[25] 	26
scalar tree_4_3_u02_r4_network.node[25].content_store 	decision_no[25] 	8688
scalar tree_4_3_u02_r4_network.node[25].content_store 	decision_ratio[25] 	0.0029837043837503
scalar tree_4_3_u02_r4_network.node[26].core_layer 	interests[26] 	12600
scalar tree_4_3_u02_r4_network.node[26].core_layer 	data[26] 	9029
scalar tree_4_3_u02_r4_network.node[26].content_store 	p_hit[26] 	0.2834126984127
scalar tree_4_3_u02_r4_network.node[26].content_store 	hits[26] 	3571
scalar tree_4_3_u02_r4_network.node[26].content_store 	misses[26] 	9029
scalar tree_4_3_u02_r4_network.node[26].content_store 	decision_yes[26] 	31
scalar tree_4_3_u02_r4_network.node[26].content_store 	decision_no[26] 	8998
scalar tree_4_3_u02_r4_network.node[26].content_store 	decision_ratio[26] 	0.0034333813268358
scalar tree_4_3_u02_r4_network.node[27].core_layer 	interests[27] 	12555
scalar tree_4_3_u02_r4_network.node[27].core_layer 	data[27] 	8684
scalar tree_4_3_u02_r4_network.node[27].content_store 	p_hit[27] 	0.30832337714058
scalar tree_4_3_u02_r4_network.node[27].content_store 	hits[27] 	3871
scalar tree_4_3_u02_r4_network.node[27].content_store 	misses[27] 	8684
scalar tree_4_3_u02_r4_network.node[27].content_store 	decision_yes[27] 	20
scalar tree_4_3_u02_r4_network.node[27].content_store 	decision_no[27] 	8664
scalar tree_4_3_u02_r4_network.node[27].content_store 	decision_ratio[27] 	0.0023030861354215
scalar tree_4_3_u02_r4_network.node[28].core_layer 	interests[28] 	12193
scalar tree_4_3_u02_r4_network.node[28].core_layer 	data[28] 	8699
scalar tree_4_3_u02_r4_network.node[28].content_store 	p_hit[28] 	0.28655786106783
scalar tree_4_3_u02_r4_network.node[28].content_store 	hits[28] 	3494
scalar tree_4_3_u02_r4_network.node[28].content_store 	misses[28] 	8699
scalar tree_4_3_u02_r4_network.node[28].content_store 	decision_yes[28] 	25
scalar tree_4_3_u02_r4_network.node[28].content_store 	decision_no[28] 	8674
scalar tree_4_3_u02_r4_network.node[28].content_store 	decision_ratio[28] 	0.0028738935509829
scalar tree_4_3_u02_r4_network.node[29].core_layer 	interests[29] 	12507
scalar tree_4_3_u02_r4_network.node[29].core_layer 	data[29] 	8649
scalar tree_4_3_u02_r4_network.node[29].content_store 	p_hit[29] 	0.30846725833533
scalar tree_4_3_u02_r4_network.node[29].content_store 	hits[29] 	3858
scalar tree_4_3_u02_r4_network.node[29].content_store 	misses[29] 	8649
scalar tree_4_3_u02_r4_network.node[29].content_store 	decision_yes[29] 	21
scalar tree_4_3_u02_r4_network.node[29].content_store 	decision_no[29] 	8628
scalar tree_4_3_u02_r4_network.node[29].content_store 	decision_ratio[29] 	0.0024280263614291
scalar tree_4_3_u02_r4_network.node[30].core_layer 	interests[30] 	12328
scalar tree_4_3_u02_r4_network.node[30].core_layer 	data[30] 	8811
scalar tree_4_3_u02_r4_network.node[30].content_store 	p_hit[30] 	0.28520441271901
scalar tree_4_3_u02_r4_network.node[30].content_store 	hits[30] 	3516
scalar tree_4_3_u02_r4_network.node[30].content_store 	misses[30] 	8812
scalar tree_4_3_u02_r4_network.node[30].content_store 	decision_yes[30] 	22
scalar tree_4_3_u02_r4_network.node[30].content_store 	decision_no[30] 	8789
scalar tree_4_3_u02_r4_network.node[30].content_store 	decision_ratio[30] 	0.0024968789013733
scalar tree_4_3_u02_r4_network.node[31].core_layer 	interests[31] 	12359
scalar tree_4_3_u02_r4_network.node[31].core_layer 	data[31] 	8677
scalar tree_4_3_u02_r4_network.node[31].content_store 	p_hit[31] 	0.29792054373331
scalar tree_4_3_u02_r4_network.node[31].content_store 	hits[31] 	3682
scalar tree_4_3_u02_r4_network.node[31].content_store 	misses[31] 	8677
scalar tree_4_3_u02_r4_network.node[31].content_store 	decision_yes[31] 	21
scalar tree_4_3_u02_r4_network.node[31].content_store 	decision_no[31] 	8656
scalar tree_4_3_u02_r4_network.node[31].content_store 	decision_ratio[31] 	0.0024201913103607
scalar tree_4_3_u02_r4_network.node[32].core_layer 	interests[32] 	12581
scalar tree_4_3_u02_r4_network.node[32].core_layer 	data[32] 	8899
scalar tree_4_3_u02_r4_network.node[32].content_store 	p_hit[32] 	0.29266354025912
scalar tree_4_3_u02_r4_network.node[32].content_store 	hits[32] 	3682
scalar tree_4_3_u02_r4_network.node[32].content_store 	misses[32] 	8899
scalar tree_4_3_u02_r4_network.node[32].content_store 	decision_yes[32] 	26
scalar tree_4_3_u02_r4_network.node[32].content_store 	decision_no[32] 	8873
scalar tree_4_3_u02_r4_network.node[32].content_store 	decision_ratio[32] 	0.0029216765928756
scalar tree_4_3_u02_r4_network.node[33].core_layer 	interests[33] 	12489
scalar tree_4_3_u02_r4_network.node[33].core_layer 	data[33] 	8728
scalar tree_4_3_u02_r4_network.node[33].content_store 	p_hit[33] 	0.30114500760669
scalar tree_4_3_u02_r4_network.node[33].content_store 	hits[33] 	3761
scalar tree_4_3_u02_r4_network.node[33].content_store 	misses[33] 	8728
scalar tree_4_3_u02_r4_network.node[33].content_store 	decision_yes[33] 	19
scalar tree_4_3_u02_r4_network.node[33].content_store 	decision_no[33] 	8709
scalar tree_4_3_u02_r4_network.node[33].content_store 	decision_ratio[33] 	0.0021769019248396
scalar tree_4_3_u02_r4_network.node[34].core_layer 	interests[34] 	12482
scalar tree_4_3_u02_r4_network.node[34].core_layer 	data[34] 	8824
scalar tree_4_3_u02_r4_network.node[34].content_store 	p_hit[34] 	0.29306200929338
scalar tree_4_3_u02_r4_network.node[34].content_store 	hits[34] 	3658
scalar tree_4_3_u02_r4_network.node[34].content_store 	misses[34] 	8824
scalar tree_4_3_u02_r4_network.node[34].content_store 	decision_yes[34] 	24
scalar tree_4_3_u02_r4_network.node[34].content_store 	decision_no[34] 	8800
scalar tree_4_3_u02_r4_network.node[34].content_store 	decision_ratio[34] 	0.0027198549410698
scalar tree_4_3_u02_r4_network.node[35].core_layer 	interests[35] 	12239
scalar tree_4_3_u02_r4_network.node[35].core_layer 	data[35] 	8609
scalar tree_4_3_u02_r4_network.node[35].content_store 	p_hit[35] 	0.2965928588937
scalar tree_4_3_u02_r4_network.node[35].content_store 	hits[35] 	3630
scalar tree_4_3_u02_r4_network.node[35].content_store 	misses[35] 	8609
scalar tree_4_3_u02_r4_network.node[35].content_store 	decision_yes[35] 	24
scalar tree_4_3_u02_r4_network.node[35].content_store 	decision_no[35] 	8585
scalar tree_4_3_u02_r4_network.node[35].content_store 	decision_ratio[35] 	0.0027877802299919
scalar tree_4_3_u02_r4_network.node[36].core_layer 	interests[36] 	12434
scalar tree_4_3_u02_r4_network.node[36].core_layer 	data[36] 	8893
scalar tree_4_3_u02_r4_network.node[36].content_store 	p_hit[36] 	0.28478365771272
scalar tree_4_3_u02_r4_network.node[36].content_store 	hits[36] 	3541
scalar tree_4_3_u02_r4_network.node[36].content_store 	misses[36] 	8893
scalar tree_4_3_u02_r4_network.node[36].content_store 	decision_yes[36] 	18
scalar tree_4_3_u02_r4_network.node[36].content_store 	decision_no[36] 	8875
scalar tree_4_3_u02_r4_network.node[36].content_store 	decision_ratio[36] 	0.0020240638704599
scalar tree_4_3_u02_r4_network.node[37].core_layer 	interests[37] 	12555
scalar tree_4_3_u02_r4_network.node[37].core_layer 	data[37] 	8848
scalar tree_4_3_u02_r4_network.node[37].content_store 	p_hit[37] 	0.2952608522501
scalar tree_4_3_u02_r4_network.node[37].content_store 	hits[37] 	3707
scalar tree_4_3_u02_r4_network.node[37].content_store 	misses[37] 	8848
scalar tree_4_3_u02_r4_network.node[37].content_store 	decision_yes[37] 	18
scalar tree_4_3_u02_r4_network.node[37].content_store 	decision_no[37] 	8830
scalar tree_4_3_u02_r4_network.node[37].content_store 	decision_ratio[37] 	0.0020343580470163
scalar tree_4_3_u02_r4_network.node[38].core_layer 	interests[38] 	12412
scalar tree_4_3_u02_r4_network.node[38].core_layer 	data[38] 	8821
scalar tree_4_3_u02_r4_network.node[38].content_store 	p_hit[38] 	0.28931679020303
scalar tree_4_3_u02_r4_network.node[38].content_store 	hits[38] 	3591
scalar tree_4_3_u02_r4_network.node[38].content_store 	misses[38] 	8821
scalar tree_4_3_u02_r4_network.node[38].content_store 	decision_yes[38] 	18
scalar tree_4_3_u02_r4_network.node[38].content_store 	decision_no[38] 	8803
scalar tree_4_3_u02_r4_network.node[38].content_store 	decision_ratio[38] 	0.0020405849676907
scalar tree_4_3_u02_r4_network.node[39].core_layer 	interests[39] 	12601
scalar tree_4_3_u02_r4_network.node[39].core_layer 	data[39] 	8928
scalar tree_4_3_u02_r4_network.node[39].content_store 	p_hit[39] 	0.29140544401238
scalar tree_4_3_u02_r4_network.node[39].content_store 	hits[39] 	3672
scalar tree_4_3_u02_r4_network.node[39].content_store 	misses[39] 	8929
scalar tree_4_3_u02_r4_network.node[39].content_store 	decision_yes[39] 	28
scalar tree_4_3_u02_r4_network.node[39].content_store 	decision_no[39] 	8900
scalar tree_4_3_u02_r4_network.node[39].content_store 	decision_ratio[39] 	0.0031362007168459
scalar tree_4_3_u02_r4_network.client[13] 	hdistance[13] 	2.6454055873443
scalar tree_4_3_u02_r4_network.client[13] 	downloads[13] 	11884
scalar tree_4_3_u02_r4_network.client[13] 	avg_time[13] 	0.004104170708
scalar tree_4_3_u02_r4_network.client[14] 	hdistance[14] 	2.641289893617
scalar tree_4_3_u02_r4_network.client[14] 	downloads[14] 	12032
scalar tree_4_3_u02_r4_network.client[14] 	avg_time[14] 	0.004104052843
scalar tree_4_3_u02_r4_network.client[15] 	hdistance[15] 	2.6598798397864
scalar tree_4_3_u02_r4_network.client[15] 	downloads[15] 	11984
scalar tree_4_3_u02_r4_network.client[15] 	avg_time[15] 	0.004129002342
scalar tree_4_3_u02_r4_network.client[16] 	hdistance[16] 	2.6166416541604
scalar tree_4_3_u02_r4_network.client[16] 	downloads[16] 	11994
scalar tree_4_3_u02_r4_network.client[16] 	avg_time[16] 	0.004046853793
scalar tree_4_3_u02_r4_network.client[17] 	hdistance[17] 	2.6950524489964
scalar tree_4_3_u02_r4_network.client[17] 	downloads[17] 	12107
scalar tree_4_3_u02_r4_network.client[17] 	avg_time[17] 	0.004197403453
scalar tree_4_3_u02_r4_network.client[18] 	hdistance[18] 	2.6067211625795
scalar tree_4_3_u02_r4_network.client[18] 	downloads[18] 	12111
scalar tree_4_3_u02_r4_network.client[18] 	avg_time[18] 	0.004027740339
scalar tree_4_3_u02_r4_network.client[19] 	hdistance[19] 	2.6540812055253
scalar tree_4_3_u02_r4_network.client[19] 	downloads[19] 	11945
scalar tree_4_3_u02_r4_network.client[19] 	avg_time[19] 	0.00411535911
scalar tree_4_3_u02_r4_network.client[20] 	hdistance[20] 	2.6632319678311
scalar tree_4_3_u02_r4_network.client[20] 	downloads[20] 	11937
scalar tree_4_3_u02_r4_network.client[20] 	avg_time[20] 	0.004132023478
scalar tree_4_3_u02_r4_network.client[21] 	hdistance[21] 	2.6576629477393
scalar tree_4_3_u02_r4_network.client[21] 	downloads[21] 	11921
scalar tree_4_3_u02_r4_network.client[21] 	avg_time[21] 	0.004125825391
scalar tree_4_3_u02_r4_network.client[22] 	hdistance[22] 	2.6734879115439
scalar tree_4_3_u02_r4_network.client[22] 	downloads[22] 	12119
scalar tree_4_3_u02_r4_network.client[22] 	avg_time[22] 	0.004157918376
scalar tree_4_3_u02_r4_network.client[23] 	hdistance[23] 	2.6670576407507
scalar tree_4_3_u02_r4_network.client[23] 	downloads[23] 	11936
scalar tree_4_3_u02_r4_network.client[23] 	avg_time[23] 	0.004148210244
scalar tree_4_3_u02_r4_network.client[24] 	hdistance[24] 	2.5868481108951
scalar tree_4_3_u02_r4_network.client[24] 	downloads[24] 	11831
scalar tree_4_3_u02_r4_network.client[24] 	avg_time[24] 	0.004005744662
scalar tree_4_3_u02_r4_network.client[25] 	hdistance[25] 	2.6469756219319
scalar tree_4_3_u02_r4_network.client[25] 	downloads[25] 	12019
scalar tree_4_3_u02_r4_network.client[25] 	avg_time[25] 	0.004108491858
scalar tree_4_3_u02_r4_network.client[26] 	hdistance[26] 	2.6798558204309
scalar tree_4_3_u02_r4_network.client[26] 	downloads[26] 	12207
scalar tree_4_3_u02_r4_network.client[26] 	avg_time[26] 	0.004170718682
scalar tree_4_3_u02_r4_network.client[27] 	hdistance[27] 	2.569024985278
scalar tree_4_3_u02_r4_network.client[27] 	downloads[27] 	11887
scalar tree_4_3_u02_r4_network.client[27] 	avg_time[27] 	0.003973076864
scalar tree_4_3_u02_r4_network.client[28] 	hdistance[28] 	2.6527590847914
scalar tree_4_3_u02_r4_network.client[28] 	downloads[28] 	11888
scalar tree_4_3_u02_r4_network.client[28] 	avg_time[28] 	0.00412280995
scalar tree_4_3_u02_r4_network.client[29] 	hdistance[29] 	2.5977030906941
scalar tree_4_3_u02_r4_network.client[29] 	downloads[29] 	11842
scalar tree_4_3_u02_r4_network.client[29] 	avg_time[29] 	0.00400936995
scalar tree_4_3_u02_r4_network.client[30] 	hdistance[30] 	2.6665001249063
scalar tree_4_3_u02_r4_network.client[30] 	downloads[30] 	12009
scalar tree_4_3_u02_r4_network.client[30] 	avg_time[30] 	0.004142556747
scalar tree_4_3_u02_r4_network.client[31] 	hdistance[31] 	2.6635936976198
scalar tree_4_3_u02_r4_network.client[31] 	downloads[31] 	11932
scalar tree_4_3_u02_r4_network.client[31] 	avg_time[31] 	0.004130067396
scalar tree_4_3_u02_r4_network.client[32] 	hdistance[32] 	2.6646918456348
scalar tree_4_3_u02_r4_network.client[32] 	downloads[32] 	12153
scalar tree_4_3_u02_r4_network.client[32] 	avg_time[32] 	0.004145521566
scalar tree_4_3_u02_r4_network.client[33] 	hdistance[33] 	2.6474497424821
scalar tree_4_3_u02_r4_network.client[33] 	downloads[33] 	12038
scalar tree_4_3_u02_r4_network.client[33] 	avg_time[33] 	0.004113969425
scalar tree_4_3_u02_r4_network.client[34] 	hdistance[34] 	2.672076846638
scalar tree_4_3_u02_r4_network.client[34] 	downloads[34] 	12076
scalar tree_4_3_u02_r4_network.client[34] 	avg_time[34] 	0.004150046636
scalar tree_4_3_u02_r4_network.client[35] 	hdistance[35] 	2.6550965120217
scalar tree_4_3_u02_r4_network.client[35] 	downloads[35] 	11812
scalar tree_4_3_u02_r4_network.client[35] 	avg_time[35] 	0.004125801336
scalar tree_4_3_u02_r4_network.client[36] 	hdistance[36] 	2.6780265339967
scalar tree_4_3_u02_r4_network.client[36] 	downloads[36] 	12060
scalar tree_4_3_u02_r4_network.client[36] 	avg_time[36] 	0.004165834458
scalar tree_4_3_u02_r4_network.client[37] 	hdistance[37] 	2.662787818767
scalar tree_4_3_u02_r4_network.client[37] 	downloads[37] 	12117
scalar tree_4_3_u02_r4_network.client[37] 	avg_time[37] 	0.004140460792
scalar tree_4_3_u02_r4_network.client[38] 	hdistance[38] 	2.6628042680893
scalar tree_4_3_u02_r4_network.client[38] 	downloads[38] 	11996
scalar tree_4_3_u02_r4_network.client[38] 	avg_time[38] 	0.004148713252
scalar tree_4_3_u02_r4_network.client[39] 	hdistance[39] 	2.6780383795309
scalar tree_4_3_u02_r4_network.client[39] 	downloads[39] 	12194
scalar tree_4_3_u02_r4_network.client[39] 	avg_time[39] 	0.00415782216
