version 2
run General-58-20160902-19:41:58-4279
attr a 0.9
attr cd ffc0.2
attr configname General
attr cr lru
attr datetime 20160902-19:41:58
attr experiment General
attr fsize 1
attr inifile hw5115/scenario_Y/omnetp.ini
attr iterationvars "$name=tree_4_3, $un=02, $rep=19, $cd=ffc0.2, $cr=lru, $fsize=1, $a=0.9, $sl=nrr, $ttl=1000, $variance=0.05"
attr iterationvars2 "$name=tree_4_3, $un=02, $rep=19, $cd=ffc0.2, $cr=lru, $fsize=1, $a=0.9, $sl=nrr, $ttl=1000, $variance=0.05, $repetition=0"
attr measurement "$name=tree_4_3, $un=02, $rep=19, $cd=ffc0.2, $cr=lru, $fsize=1, $a=0.9, $sl=nrr, $ttl=1000, $variance=0.05"
attr name tree_4_3
attr network networks.${name}_u${un}_r${rep}_network
attr processid 4279
attr rep 19
attr repetition 0
attr replication #0
attr resultdir results
attr runnumber 58
attr seedset 19
attr sl nrr
attr ttl 1000
attr un 02
attr variance 0.05

scalar . 	a 	0.9
scalar . 	fsize 	1
scalar . 	rep 	19
scalar . 	ttl 	1000
scalar . 	un 	02
scalar . 	variance 	0.05
scalar tree_4_3_u02_r19_network.content_distribution 	repo-0 	0
scalar tree_4_3_u02_r19_network.content_distribution 	client-0 	13
scalar tree_4_3_u02_r19_network.content_distribution 	client-1 	14
scalar tree_4_3_u02_r19_network.content_distribution 	client-2 	15
scalar tree_4_3_u02_r19_network.content_distribution 	client-3 	16
scalar tree_4_3_u02_r19_network.content_distribution 	client-4 	17
scalar tree_4_3_u02_r19_network.content_distribution 	client-5 	18
scalar tree_4_3_u02_r19_network.content_distribution 	client-6 	19
scalar tree_4_3_u02_r19_network.content_distribution 	client-7 	20
scalar tree_4_3_u02_r19_network.content_distribution 	client-8 	21
scalar tree_4_3_u02_r19_network.content_distribution 	client-9 	22
scalar tree_4_3_u02_r19_network.content_distribution 	client-10 	23
scalar tree_4_3_u02_r19_network.content_distribution 	client-11 	24
scalar tree_4_3_u02_r19_network.content_distribution 	client-12 	25
scalar tree_4_3_u02_r19_network.content_distribution 	client-13 	26
scalar tree_4_3_u02_r19_network.content_distribution 	client-14 	27
scalar tree_4_3_u02_r19_network.content_distribution 	client-15 	28
scalar tree_4_3_u02_r19_network.content_distribution 	client-16 	29
scalar tree_4_3_u02_r19_network.content_distribution 	client-17 	30
scalar tree_4_3_u02_r19_network.content_distribution 	client-18 	31
scalar tree_4_3_u02_r19_network.content_distribution 	client-19 	32
scalar tree_4_3_u02_r19_network.content_distribution 	client-20 	33
scalar tree_4_3_u02_r19_network.content_distribution 	client-21 	34
scalar tree_4_3_u02_r19_network.content_distribution 	client-22 	35
scalar tree_4_3_u02_r19_network.content_distribution 	client-23 	36
scalar tree_4_3_u02_r19_network.content_distribution 	client-24 	37
scalar tree_4_3_u02_r19_network.content_distribution 	client-25 	38
scalar tree_4_3_u02_r19_network.content_distribution 	client-26 	39
scalar tree_4_3_u02_r19_network.content_distribution 	repo-0_card 	100000
scalar tree_4_3_u02_r19_network.content_distribution 	repo-0_price 	0
scalar tree_4_3_u02_r19_network.statistics 	stabilization_time 	1850.8
scalar tree_4_3_u02_r19_network.statistics 	p_hit 	0.22593781379727
scalar tree_4_3_u02_r19_network.statistics 	interests 	24777.7
scalar tree_4_3_u02_r19_network.statistics 	data 	16670.275
scalar tree_4_3_u02_r19_network.statistics 	hdistance 	2.6375550625308
scalar tree_4_3_u02_r19_network.statistics 	avg_time 	0.00411240488
scalar tree_4_3_u02_r19_network.statistics 	downloads 	324289
scalar tree_4_3_u02_r19_network.statistics 	total_cost 	0
scalar tree_4_3_u02_r19_network.statistics 	total_replicas 	100000
scalar tree_4_3_u02_r19_network.statistics 	inner_hit 	0.41863276275174
scalar tree_4_3_u02_r19_network.node[0].core_layer 	interests[0] 	192415
scalar tree_4_3_u02_r19_network.node[0].core_layer 	repo_load[0] 	188531
scalar tree_4_3_u02_r19_network.node[0].core_layer 	data[0] 	0
scalar tree_4_3_u02_r19_network.node[0].core_layer 	repo_int[0] 	188531
scalar tree_4_3_u02_r19_network.node[0].content_store 	p_hit[0] 	0.020185536470649
scalar tree_4_3_u02_r19_network.node[0].content_store 	hits[0] 	3884
scalar tree_4_3_u02_r19_network.node[0].content_store 	misses[0] 	188531
scalar tree_4_3_u02_r19_network.node[0].content_store 	decision_yes[0] 	162
scalar tree_4_3_u02_r19_network.node[0].content_store 	decision_no[0] 	188369
scalar tree_4_3_u02_r19_network.node[0].content_store 	decision_ratio[0] 	0.00085927513247158
scalar tree_4_3_u02_r19_network.node[1].core_layer 	interests[1] 	100086
scalar tree_4_3_u02_r19_network.node[1].core_layer 	data[1] 	96872
scalar tree_4_3_u02_r19_network.node[1].content_store 	p_hit[1] 	0.032102391942929
scalar tree_4_3_u02_r19_network.node[1].content_store 	hits[1] 	3213
scalar tree_4_3_u02_r19_network.node[1].content_store 	misses[1] 	96873
scalar tree_4_3_u02_r19_network.node[1].content_store 	decision_yes[1] 	133
scalar tree_4_3_u02_r19_network.node[1].content_store 	decision_no[1] 	96739
scalar tree_4_3_u02_r19_network.node[1].content_store 	decision_ratio[1] 	0.0013729457428359
scalar tree_4_3_u02_r19_network.node[2].core_layer 	interests[2] 	43029
scalar tree_4_3_u02_r19_network.node[2].core_layer 	data[2] 	39779
scalar tree_4_3_u02_r19_network.node[2].content_store 	p_hit[2] 	0.075530456203955
scalar tree_4_3_u02_r19_network.node[2].content_store 	hits[2] 	3250
scalar tree_4_3_u02_r19_network.node[2].content_store 	misses[2] 	39779
scalar tree_4_3_u02_r19_network.node[2].content_store 	decision_yes[2] 	60
scalar tree_4_3_u02_r19_network.node[2].content_store 	decision_no[2] 	39719
scalar tree_4_3_u02_r19_network.node[2].content_store 	decision_ratio[2] 	0.0015083335428241
scalar tree_4_3_u02_r19_network.node[3].core_layer 	interests[3] 	70225
scalar tree_4_3_u02_r19_network.node[3].core_layer 	data[3] 	67968
scalar tree_4_3_u02_r19_network.node[3].content_store 	p_hit[3] 	0.032111071555714
scalar tree_4_3_u02_r19_network.node[3].content_store 	hits[3] 	2255
scalar tree_4_3_u02_r19_network.node[3].content_store 	misses[3] 	67970
scalar tree_4_3_u02_r19_network.node[3].content_store 	decision_yes[3] 	81
scalar tree_4_3_u02_r19_network.node[3].content_store 	decision_no[3] 	67887
scalar tree_4_3_u02_r19_network.node[3].content_store 	decision_ratio[3] 	0.0011917372881356
scalar tree_4_3_u02_r19_network.node[4].core_layer 	interests[4] 	27542
scalar tree_4_3_u02_r19_network.node[4].core_layer 	data[4] 	25232
scalar tree_4_3_u02_r19_network.node[4].content_store 	p_hit[4] 	0.083799288359596
scalar tree_4_3_u02_r19_network.node[4].content_store 	hits[4] 	2308
scalar tree_4_3_u02_r19_network.node[4].content_store 	misses[4] 	25234
scalar tree_4_3_u02_r19_network.node[4].content_store 	decision_yes[4] 	60
scalar tree_4_3_u02_r19_network.node[4].content_store 	decision_no[4] 	25172
scalar tree_4_3_u02_r19_network.node[4].content_store 	decision_ratio[4] 	0.0023779327837666
scalar tree_4_3_u02_r19_network.node[5].core_layer 	interests[5] 	28599
scalar tree_4_3_u02_r19_network.node[5].core_layer 	data[5] 	25517
scalar tree_4_3_u02_r19_network.node[5].content_store 	p_hit[5] 	0.1077660058044
scalar tree_4_3_u02_r19_network.node[5].content_store 	hits[5] 	3082
scalar tree_4_3_u02_r19_network.node[5].content_store 	misses[5] 	25517
scalar tree_4_3_u02_r19_network.node[5].content_store 	decision_yes[5] 	69
scalar tree_4_3_u02_r19_network.node[5].content_store 	decision_no[5] 	25448
scalar tree_4_3_u02_r19_network.node[5].content_store 	decision_ratio[5] 	0.0027040796331857
scalar tree_4_3_u02_r19_network.node[6].core_layer 	interests[6] 	27569
scalar tree_4_3_u02_r19_network.node[6].core_layer 	data[6] 	25272
scalar tree_4_3_u02_r19_network.node[6].content_store 	p_hit[6] 	0.083281947114513
scalar tree_4_3_u02_r19_network.node[6].content_store 	hits[6] 	2296
scalar tree_4_3_u02_r19_network.node[6].content_store 	misses[6] 	25273
scalar tree_4_3_u02_r19_network.node[6].content_store 	decision_yes[6] 	51
scalar tree_4_3_u02_r19_network.node[6].content_store 	decision_no[6] 	25221
scalar tree_4_3_u02_r19_network.node[6].content_store 	decision_ratio[6] 	0.0020180436847104
scalar tree_4_3_u02_r19_network.node[7].core_layer 	interests[7] 	37006
scalar tree_4_3_u02_r19_network.node[7].core_layer 	data[7] 	33302
scalar tree_4_3_u02_r19_network.node[7].content_store 	p_hit[7] 	0.10009187699292
scalar tree_4_3_u02_r19_network.node[7].content_store 	hits[7] 	3704
scalar tree_4_3_u02_r19_network.node[7].content_store 	misses[7] 	33302
scalar tree_4_3_u02_r19_network.node[7].content_store 	decision_yes[7] 	84
scalar tree_4_3_u02_r19_network.node[7].content_store 	decision_no[7] 	33218
scalar tree_4_3_u02_r19_network.node[7].content_store 	decision_ratio[7] 	0.002522371028767
scalar tree_4_3_u02_r19_network.node[8].core_layer 	interests[8] 	27327
scalar tree_4_3_u02_r19_network.node[8].core_layer 	data[8] 	25154
scalar tree_4_3_u02_r19_network.node[8].content_store 	p_hit[8] 	0.079518425000915
scalar tree_4_3_u02_r19_network.node[8].content_store 	hits[8] 	2173
scalar tree_4_3_u02_r19_network.node[8].content_store 	misses[8] 	25154
scalar tree_4_3_u02_r19_network.node[8].content_store 	decision_yes[8] 	51
scalar tree_4_3_u02_r19_network.node[8].content_store 	decision_no[8] 	25103
scalar tree_4_3_u02_r19_network.node[8].content_store 	decision_ratio[8] 	0.0020275105351038
scalar tree_4_3_u02_r19_network.node[9].core_layer 	interests[9] 	19104
scalar tree_4_3_u02_r19_network.node[9].core_layer 	data[9] 	16856
scalar tree_4_3_u02_r19_network.node[9].content_store 	p_hit[9] 	0.11767169179229
scalar tree_4_3_u02_r19_network.node[9].content_store 	hits[9] 	2248
scalar tree_4_3_u02_r19_network.node[9].content_store 	misses[9] 	16856
scalar tree_4_3_u02_r19_network.node[9].content_store 	decision_yes[9] 	38
scalar tree_4_3_u02_r19_network.node[9].content_store 	decision_no[9] 	16818
scalar tree_4_3_u02_r19_network.node[9].content_store 	decision_ratio[9] 	0.0022543901281443
scalar tree_4_3_u02_r19_network.node[10].core_layer 	interests[10] 	35131
scalar tree_4_3_u02_r19_network.node[10].core_layer 	data[10] 	32608
scalar tree_4_3_u02_r19_network.node[10].content_store 	p_hit[10] 	0.071788448948222
scalar tree_4_3_u02_r19_network.node[10].content_store 	hits[10] 	2522
scalar tree_4_3_u02_r19_network.node[10].content_store 	misses[10] 	32609
scalar tree_4_3_u02_r19_network.node[10].content_store 	decision_yes[10] 	62
scalar tree_4_3_u02_r19_network.node[10].content_store 	decision_no[10] 	32546
scalar tree_4_3_u02_r19_network.node[10].content_store 	decision_ratio[10] 	0.0019013738959764
scalar tree_4_3_u02_r19_network.node[11].core_layer 	interests[11] 	27610
scalar tree_4_3_u02_r19_network.node[11].core_layer 	data[11] 	24942
scalar tree_4_3_u02_r19_network.node[11].content_store 	p_hit[11] 	0.096631655197392
scalar tree_4_3_u02_r19_network.node[11].content_store 	hits[11] 	2668
scalar tree_4_3_u02_r19_network.node[11].content_store 	misses[11] 	24942
scalar tree_4_3_u02_r19_network.node[11].content_store 	decision_yes[11] 	61
scalar tree_4_3_u02_r19_network.node[11].content_store 	decision_no[11] 	24881
scalar tree_4_3_u02_r19_network.node[11].content_store 	decision_ratio[11] 	0.0024456739635955
scalar tree_4_3_u02_r19_network.node[12].core_layer 	interests[12] 	18821
scalar tree_4_3_u02_r19_network.node[12].core_layer 	data[12] 	16808
scalar tree_4_3_u02_r19_network.node[12].content_store 	p_hit[12] 	0.10684873279847
scalar tree_4_3_u02_r19_network.node[12].content_store 	hits[12] 	2011
scalar tree_4_3_u02_r19_network.node[12].content_store 	misses[12] 	16810
scalar tree_4_3_u02_r19_network.node[12].content_store 	decision_yes[12] 	31
scalar tree_4_3_u02_r19_network.node[12].content_store 	decision_no[12] 	16777
scalar tree_4_3_u02_r19_network.node[12].content_store 	decision_ratio[12] 	0.001844359828653
scalar tree_4_3_u02_r19_network.node[13].core_layer 	interests[13] 	12461
scalar tree_4_3_u02_r19_network.node[13].core_layer 	data[13] 	8844
scalar tree_4_3_u02_r19_network.node[13].content_store 	p_hit[13] 	0.29026562876174
scalar tree_4_3_u02_r19_network.node[13].content_store 	hits[13] 	3617
scalar tree_4_3_u02_r19_network.node[13].content_store 	misses[13] 	8844
scalar tree_4_3_u02_r19_network.node[13].content_store 	decision_yes[13] 	27
scalar tree_4_3_u02_r19_network.node[13].content_store 	decision_no[13] 	8817
scalar tree_4_3_u02_r19_network.node[13].content_store 	decision_ratio[13] 	0.0030529172320217
scalar tree_4_3_u02_r19_network.node[14].core_layer 	interests[14] 	12434
scalar tree_4_3_u02_r19_network.node[14].core_layer 	data[14] 	8702
scalar tree_4_3_u02_r19_network.node[14].content_store 	p_hit[14] 	0.3001447643558
scalar tree_4_3_u02_r19_network.node[14].content_store 	hits[14] 	3732
scalar tree_4_3_u02_r19_network.node[14].content_store 	misses[14] 	8702
scalar tree_4_3_u02_r19_network.node[14].content_store 	decision_yes[14] 	18
scalar tree_4_3_u02_r19_network.node[14].content_store 	decision_no[14] 	8684
scalar tree_4_3_u02_r19_network.node[14].content_store 	decision_ratio[14] 	0.0020684900022983
scalar tree_4_3_u02_r19_network.node[15].core_layer 	interests[15] 	12449
scalar tree_4_3_u02_r19_network.node[15].core_layer 	data[15] 	8757
scalar tree_4_3_u02_r19_network.node[15].content_store 	p_hit[15] 	0.29657000562294
scalar tree_4_3_u02_r19_network.node[15].content_store 	hits[15] 	3692
scalar tree_4_3_u02_r19_network.node[15].content_store 	misses[15] 	8757
scalar tree_4_3_u02_r19_network.node[15].content_store 	decision_yes[15] 	28
scalar tree_4_3_u02_r19_network.node[15].content_store 	decision_no[15] 	8729
scalar tree_4_3_u02_r19_network.node[15].content_store 	decision_ratio[15] 	0.0031974420463629
scalar tree_4_3_u02_r19_network.node[16].core_layer 	interests[16] 	12314
scalar tree_4_3_u02_r19_network.node[16].core_layer 	data[16] 	8560
scalar tree_4_3_u02_r19_network.node[16].content_store 	p_hit[16] 	0.30485626116615
scalar tree_4_3_u02_r19_network.node[16].content_store 	hits[16] 	3754
scalar tree_4_3_u02_r19_network.node[16].content_store 	misses[16] 	8560
scalar tree_4_3_u02_r19_network.node[16].content_store 	decision_yes[16] 	18
scalar tree_4_3_u02_r19_network.node[16].content_store 	decision_no[16] 	8542
scalar tree_4_3_u02_r19_network.node[16].content_store 	decision_ratio[16] 	0.0021028037383178
scalar tree_4_3_u02_r19_network.node[17].core_layer 	interests[17] 	12956
scalar tree_4_3_u02_r19_network.node[17].core_layer 	data[17] 	9083
scalar tree_4_3_u02_r19_network.node[17].content_store 	p_hit[17] 	0.29893485643717
scalar tree_4_3_u02_r19_network.node[17].content_store 	hits[17] 	3873
scalar tree_4_3_u02_r19_network.node[17].content_store 	misses[17] 	9083
scalar tree_4_3_u02_r19_network.node[17].content_store 	decision_yes[17] 	29
scalar tree_4_3_u02_r19_network.node[17].content_store 	decision_no[17] 	9054
scalar tree_4_3_u02_r19_network.node[17].content_store 	decision_ratio[17] 	0.0031927777166135
scalar tree_4_3_u02_r19_network.node[18].core_layer 	interests[18] 	12449
scalar tree_4_3_u02_r19_network.node[18].core_layer 	data[18] 	8659
scalar tree_4_3_u02_r19_network.node[18].content_store 	p_hit[18] 	0.30444212386537
scalar tree_4_3_u02_r19_network.node[18].content_store 	hits[18] 	3790
scalar tree_4_3_u02_r19_network.node[18].content_store 	misses[18] 	8659
scalar tree_4_3_u02_r19_network.node[18].content_store 	decision_yes[18] 	18
scalar tree_4_3_u02_r19_network.node[18].content_store 	decision_no[18] 	8641
scalar tree_4_3_u02_r19_network.node[18].content_store 	decision_ratio[18] 	0.0020787619817531
scalar tree_4_3_u02_r19_network.node[19].core_layer 	interests[19] 	12448
scalar tree_4_3_u02_r19_network.node[19].core_layer 	data[19] 	8925
scalar tree_4_3_u02_r19_network.node[19].content_store 	p_hit[19] 	0.28301735218509
scalar tree_4_3_u02_r19_network.node[19].content_store 	hits[19] 	3523
scalar tree_4_3_u02_r19_network.node[19].content_store 	misses[19] 	8925
scalar tree_4_3_u02_r19_network.node[19].content_store 	decision_yes[19] 	34
scalar tree_4_3_u02_r19_network.node[19].content_store 	decision_no[19] 	8891
scalar tree_4_3_u02_r19_network.node[19].content_store 	decision_ratio[19] 	0.0038095238095238
scalar tree_4_3_u02_r19_network.node[20].core_layer 	interests[20] 	12472
scalar tree_4_3_u02_r19_network.node[20].core_layer 	data[20] 	8794
scalar tree_4_3_u02_r19_network.node[20].content_store 	p_hit[20] 	0.29490057729314
scalar tree_4_3_u02_r19_network.node[20].content_store 	hits[20] 	3678
scalar tree_4_3_u02_r19_network.node[20].content_store 	misses[20] 	8794
scalar tree_4_3_u02_r19_network.node[20].content_store 	decision_yes[20] 	22
scalar tree_4_3_u02_r19_network.node[20].content_store 	decision_no[20] 	8772
scalar tree_4_3_u02_r19_network.node[20].content_store 	decision_ratio[20] 	0.0025017057084376
scalar tree_4_3_u02_r19_network.node[21].core_layer 	interests[21] 	12364
scalar tree_4_3_u02_r19_network.node[21].core_layer 	data[21] 	8690
scalar tree_4_3_u02_r19_network.node[21].content_store 	p_hit[21] 	0.29715302491103
scalar tree_4_3_u02_r19_network.node[21].content_store 	hits[21] 	3674
scalar tree_4_3_u02_r19_network.node[21].content_store 	misses[21] 	8690
scalar tree_4_3_u02_r19_network.node[21].content_store 	decision_yes[21] 	22
scalar tree_4_3_u02_r19_network.node[21].content_store 	decision_no[21] 	8668
scalar tree_4_3_u02_r19_network.node[21].content_store 	decision_ratio[21] 	0.0025316455696203
scalar tree_4_3_u02_r19_network.node[22].core_layer 	interests[22] 	12459
scalar tree_4_3_u02_r19_network.node[22].core_layer 	data[22] 	8671
scalar tree_4_3_u02_r19_network.node[22].content_store 	p_hit[22] 	0.30403724215427
scalar tree_4_3_u02_r19_network.node[22].content_store 	hits[22] 	3788
scalar tree_4_3_u02_r19_network.node[22].content_store 	misses[22] 	8671
scalar tree_4_3_u02_r19_network.node[22].content_store 	decision_yes[22] 	21
scalar tree_4_3_u02_r19_network.node[22].content_store 	decision_no[22] 	8650
scalar tree_4_3_u02_r19_network.node[22].content_store 	decision_ratio[22] 	0.0024218659900819
scalar tree_4_3_u02_r19_network.node[23].core_layer 	interests[23] 	12425
scalar tree_4_3_u02_r19_network.node[23].core_layer 	data[23] 	8727
scalar tree_4_3_u02_r19_network.node[23].content_store 	p_hit[23] 	0.29762575452716
scalar tree_4_3_u02_r19_network.node[23].content_store 	hits[23] 	3698
scalar tree_4_3_u02_r19_network.node[23].content_store 	misses[23] 	8727
scalar tree_4_3_u02_r19_network.node[23].content_store 	decision_yes[23] 	19
scalar tree_4_3_u02_r19_network.node[23].content_store 	decision_no[23] 	8708
scalar tree_4_3_u02_r19_network.node[23].content_store 	decision_ratio[23] 	0.0021771513693136
scalar tree_4_3_u02_r19_network.node[24].core_layer 	interests[24] 	12434
scalar tree_4_3_u02_r19_network.node[24].core_layer 	data[24] 	8724
scalar tree_4_3_u02_r19_network.node[24].content_store 	p_hit[24] 	0.29837542222937
scalar tree_4_3_u02_r19_network.node[24].content_store 	hits[24] 	3710
scalar tree_4_3_u02_r19_network.node[24].content_store 	misses[24] 	8724
scalar tree_4_3_u02_r19_network.node[24].content_store 	decision_yes[24] 	18
scalar tree_4_3_u02_r19_network.node[24].content_store 	decision_no[24] 	8706
scalar tree_4_3_u02_r19_network.node[24].content_store 	decision_ratio[24] 	0.0020632737276479
scalar tree_4_3_u02_r19_network.node[25].core_layer 	interests[25] 	12507
scalar tree_4_3_u02_r19_network.node[25].core_layer 	data[25] 	8866
scalar tree_4_3_u02_r19_network.node[25].content_store 	p_hit[25] 	0.29111697449428
scalar tree_4_3_u02_r19_network.node[25].content_store 	hits[25] 	3641
scalar tree_4_3_u02_r19_network.node[25].content_store 	misses[25] 	8866
scalar tree_4_3_u02_r19_network.node[25].content_store 	decision_yes[25] 	20
scalar tree_4_3_u02_r19_network.node[25].content_store 	decision_no[25] 	8846
scalar tree_4_3_u02_r19_network.node[25].content_store 	decision_ratio[25] 	0.0022558087074216
scalar tree_4_3_u02_r19_network.node[26].core_layer 	interests[26] 	12291
scalar tree_4_3_u02_r19_network.node[26].core_layer 	data[26] 	8621
scalar tree_4_3_u02_r19_network.node[26].content_store 	p_hit[26] 	0.29859246603206
scalar tree_4_3_u02_r19_network.node[26].content_store 	hits[26] 	3670
scalar tree_4_3_u02_r19_network.node[26].content_store 	misses[26] 	8621
scalar tree_4_3_u02_r19_network.node[26].content_store 	decision_yes[26] 	25
scalar tree_4_3_u02_r19_network.node[26].content_store 	decision_no[26] 	8596
scalar tree_4_3_u02_r19_network.node[26].content_store 	decision_ratio[26] 	0.0028998956037583
scalar tree_4_3_u02_r19_network.node[27].core_layer 	interests[27] 	12454
scalar tree_4_3_u02_r19_network.node[27].core_layer 	data[27] 	8800
scalar tree_4_3_u02_r19_network.node[27].content_store 	p_hit[27] 	0.29339971093625
scalar tree_4_3_u02_r19_network.node[27].content_store 	hits[27] 	3654
scalar tree_4_3_u02_r19_network.node[27].content_store 	misses[27] 	8800
scalar tree_4_3_u02_r19_network.node[27].content_store 	decision_yes[27] 	21
scalar tree_4_3_u02_r19_network.node[27].content_store 	decision_no[27] 	8779
scalar tree_4_3_u02_r19_network.node[27].content_store 	decision_ratio[27] 	0.0023863636363636
scalar tree_4_3_u02_r19_network.node[28].core_layer 	interests[28] 	12806
scalar tree_4_3_u02_r19_network.node[28].core_layer 	data[28] 	8732
scalar tree_4_3_u02_r19_network.node[28].content_store 	p_hit[28] 	0.31813212556614
scalar tree_4_3_u02_r19_network.node[28].content_store 	hits[28] 	4074
scalar tree_4_3_u02_r19_network.node[28].content_store 	misses[28] 	8732
scalar tree_4_3_u02_r19_network.node[28].content_store 	decision_yes[28] 	26
scalar tree_4_3_u02_r19_network.node[28].content_store 	decision_no[28] 	8706
scalar tree_4_3_u02_r19_network.node[28].content_store 	decision_ratio[28] 	0.0029775538250115
scalar tree_4_3_u02_r19_network.node[29].core_layer 	interests[29] 	12450
scalar tree_4_3_u02_r19_network.node[29].core_layer 	data[29] 	8879
scalar tree_4_3_u02_r19_network.node[29].content_store 	p_hit[29] 	0.28682730923695
scalar tree_4_3_u02_r19_network.node[29].content_store 	hits[29] 	3571
scalar tree_4_3_u02_r19_network.node[29].content_store 	misses[29] 	8879
scalar tree_4_3_u02_r19_network.node[29].content_store 	decision_yes[29] 	19
scalar tree_4_3_u02_r19_network.node[29].content_store 	decision_no[29] 	8860
scalar tree_4_3_u02_r19_network.node[29].content_store 	decision_ratio[29] 	0.0021398806171866
scalar tree_4_3_u02_r19_network.node[30].core_layer 	interests[30] 	12204
scalar tree_4_3_u02_r19_network.node[30].core_layer 	data[30] 	8728
scalar tree_4_3_u02_r19_network.node[30].content_store 	p_hit[30] 	0.28482464765651
scalar tree_4_3_u02_r19_network.node[30].content_store 	hits[30] 	3476
scalar tree_4_3_u02_r19_network.node[30].content_store 	misses[30] 	8728
scalar tree_4_3_u02_r19_network.node[30].content_store 	decision_yes[30] 	22
scalar tree_4_3_u02_r19_network.node[30].content_store 	decision_no[30] 	8706
scalar tree_4_3_u02_r19_network.node[30].content_store 	decision_ratio[30] 	0.0025206232813932
scalar tree_4_3_u02_r19_network.node[31].core_layer 	interests[31] 	12437
scalar tree_4_3_u02_r19_network.node[31].core_layer 	data[31] 	8802
scalar tree_4_3_u02_r19_network.node[31].content_store 	p_hit[31] 	0.29227305620326
scalar tree_4_3_u02_r19_network.node[31].content_store 	hits[31] 	3635
scalar tree_4_3_u02_r19_network.node[31].content_store 	misses[31] 	8802
scalar tree_4_3_u02_r19_network.node[31].content_store 	decision_yes[31] 	13
scalar tree_4_3_u02_r19_network.node[31].content_store 	decision_no[31] 	8789
scalar tree_4_3_u02_r19_network.node[31].content_store 	decision_ratio[31] 	0.0014769370597591
scalar tree_4_3_u02_r19_network.node[32].core_layer 	interests[32] 	12868
scalar tree_4_3_u02_r19_network.node[32].core_layer 	data[32] 	8867
scalar tree_4_3_u02_r19_network.node[32].content_store 	p_hit[32] 	0.31092632887784
scalar tree_4_3_u02_r19_network.node[32].content_store 	hits[32] 	4001
scalar tree_4_3_u02_r19_network.node[32].content_store 	misses[32] 	8867
scalar tree_4_3_u02_r19_network.node[32].content_store 	decision_yes[32] 	30
scalar tree_4_3_u02_r19_network.node[32].content_store 	decision_no[32] 	8837
scalar tree_4_3_u02_r19_network.node[32].content_store 	decision_ratio[32] 	0.0033833314537047
scalar tree_4_3_u02_r19_network.node[33].core_layer 	interests[33] 	12469
scalar tree_4_3_u02_r19_network.node[33].core_layer 	data[33] 	8753
scalar tree_4_3_u02_r19_network.node[33].content_store 	p_hit[33] 	0.29793888844334
scalar tree_4_3_u02_r19_network.node[33].content_store 	hits[33] 	3715
scalar tree_4_3_u02_r19_network.node[33].content_store 	misses[33] 	8754
scalar tree_4_3_u02_r19_network.node[33].content_store 	decision_yes[33] 	22
scalar tree_4_3_u02_r19_network.node[33].content_store 	decision_no[33] 	8731
scalar tree_4_3_u02_r19_network.node[33].content_store 	decision_ratio[33] 	0.0025134239689249
scalar tree_4_3_u02_r19_network.node[34].core_layer 	interests[34] 	12220
scalar tree_4_3_u02_r19_network.node[34].core_layer 	data[34] 	8525
scalar tree_4_3_u02_r19_network.node[34].content_store 	p_hit[34] 	0.30237315875614
scalar tree_4_3_u02_r19_network.node[34].content_store 	hits[34] 	3695
scalar tree_4_3_u02_r19_network.node[34].content_store 	misses[34] 	8525
scalar tree_4_3_u02_r19_network.node[34].content_store 	decision_yes[34] 	25
scalar tree_4_3_u02_r19_network.node[34].content_store 	decision_no[34] 	8500
scalar tree_4_3_u02_r19_network.node[34].content_store 	decision_ratio[34] 	0.0029325513196481
scalar tree_4_3_u02_r19_network.node[35].core_layer 	interests[35] 	12510
scalar tree_4_3_u02_r19_network.node[35].core_layer 	data[35] 	8822
scalar tree_4_3_u02_r19_network.node[35].content_store 	p_hit[35] 	0.29480415667466
scalar tree_4_3_u02_r19_network.node[35].content_store 	hits[35] 	3688
scalar tree_4_3_u02_r19_network.node[35].content_store 	misses[35] 	8822
scalar tree_4_3_u02_r19_network.node[35].content_store 	decision_yes[35] 	29
scalar tree_4_3_u02_r19_network.node[35].content_store 	decision_no[35] 	8793
scalar tree_4_3_u02_r19_network.node[35].content_store 	decision_ratio[35] 	0.0032872364543187
scalar tree_4_3_u02_r19_network.node[36].core_layer 	interests[36] 	12420
scalar tree_4_3_u02_r19_network.node[36].core_layer 	data[36] 	8724
scalar tree_4_3_u02_r19_network.node[36].content_store 	p_hit[36] 	0.2975845410628
scalar tree_4_3_u02_r19_network.node[36].content_store 	hits[36] 	3696
scalar tree_4_3_u02_r19_network.node[36].content_store 	misses[36] 	8724
scalar tree_4_3_u02_r19_network.node[36].content_store 	decision_yes[36] 	21
scalar tree_4_3_u02_r19_network.node[36].content_store 	decision_no[36] 	8703
scalar tree_4_3_u02_r19_network.node[36].content_store 	decision_ratio[36] 	0.0024071526822558
scalar tree_4_3_u02_r19_network.node[37].core_layer 	interests[37] 	12649
scalar tree_4_3_u02_r19_network.node[37].core_layer 	data[37] 	8721
scalar tree_4_3_u02_r19_network.node[37].content_store 	p_hit[37] 	0.31053838248083
scalar tree_4_3_u02_r19_network.node[37].content_store 	hits[37] 	3928
scalar tree_4_3_u02_r19_network.node[37].content_store 	misses[37] 	8721
scalar tree_4_3_u02_r19_network.node[37].content_store 	decision_yes[37] 	17
scalar tree_4_3_u02_r19_network.node[37].content_store 	decision_no[37] 	8704
scalar tree_4_3_u02_r19_network.node[37].content_store 	decision_ratio[37] 	0.0019493177387914
scalar tree_4_3_u02_r19_network.node[38].core_layer 	interests[38] 	12268
scalar tree_4_3_u02_r19_network.node[38].core_layer 	data[38] 	8721
scalar tree_4_3_u02_r19_network.node[38].content_store 	p_hit[38] 	0.28904466905771
scalar tree_4_3_u02_r19_network.node[38].content_store 	hits[38] 	3546
scalar tree_4_3_u02_r19_network.node[38].content_store 	misses[38] 	8722
scalar tree_4_3_u02_r19_network.node[38].content_store 	decision_yes[38] 	19
scalar tree_4_3_u02_r19_network.node[38].content_store 	decision_no[38] 	8702
scalar tree_4_3_u02_r19_network.node[38].content_store 	decision_ratio[38] 	0.0021786492374728
scalar tree_4_3_u02_r19_network.node[39].core_layer 	interests[39] 	12426
scalar tree_4_3_u02_r19_network.node[39].core_layer 	data[39] 	8804
scalar tree_4_3_u02_r19_network.node[39].content_store 	p_hit[39] 	0.29148559472075
scalar tree_4_3_u02_r19_network.node[39].content_store 	hits[39] 	3622
scalar tree_4_3_u02_r19_network.node[39].content_store 	misses[39] 	8804
scalar tree_4_3_u02_r19_network.node[39].content_store 	decision_yes[39] 	31
scalar tree_4_3_u02_r19_network.node[39].content_store 	decision_no[39] 	8773
scalar tree_4_3_u02_r19_network.node[39].content_store 	decision_ratio[39] 	0.0035211267605634
scalar tree_4_3_u02_r19_network.client[13] 	hdistance[13] 	2.6562603786118
scalar tree_4_3_u02_r19_network.client[13] 	downloads[13] 	12044
scalar tree_4_3_u02_r19_network.client[13] 	avg_time[13] 	0.004152343365
scalar tree_4_3_u02_r19_network.client[14] 	hdistance[14] 	2.653219744425
scalar tree_4_3_u02_r19_network.client[14] 	downloads[14] 	11973
scalar tree_4_3_u02_r19_network.client[14] 	avg_time[14] 	0.004138494186
scalar tree_4_3_u02_r19_network.client[15] 	hdistance[15] 	2.651555481617
scalar tree_4_3_u02_r19_network.client[15] 	downloads[15] 	12022
scalar tree_4_3_u02_r19_network.client[15] 	avg_time[15] 	0.004139907169
scalar tree_4_3_u02_r19_network.client[16] 	hdistance[16] 	2.6171098462323
scalar tree_4_3_u02_r19_network.client[16] 	downloads[16] 	11771
scalar tree_4_3_u02_r19_network.client[16] 	avg_time[16] 	0.004107039789
scalar tree_4_3_u02_r19_network.client[17] 	hdistance[17] 	2.6288311479366
scalar tree_4_3_u02_r19_network.client[17] 	downloads[17] 	12431
scalar tree_4_3_u02_r19_network.client[17] 	avg_time[17] 	0.00412355891
scalar tree_4_3_u02_r19_network.client[18] 	hdistance[18] 	2.6143478988783
scalar tree_4_3_u02_r19_network.client[18] 	downloads[18] 	11946
scalar tree_4_3_u02_r19_network.client[18] 	avg_time[18] 	0.004093628523
scalar tree_4_3_u02_r19_network.client[19] 	hdistance[19] 	2.6832478066545
scalar tree_4_3_u02_r19_network.client[19] 	downloads[19] 	12082
scalar tree_4_3_u02_r19_network.client[19] 	avg_time[19] 	0.004189535125
scalar tree_4_3_u02_r19_network.client[20] 	hdistance[20] 	2.6591514143095
scalar tree_4_3_u02_r19_network.client[20] 	downloads[20] 	12020
scalar tree_4_3_u02_r19_network.client[20] 	avg_time[20] 	0.004149596879
scalar tree_4_3_u02_r19_network.client[21] 	hdistance[21] 	2.6464722641193
scalar tree_4_3_u02_r19_network.client[21] 	downloads[21] 	11934
scalar tree_4_3_u02_r19_network.client[21] 	avg_time[21] 	0.004133732569
scalar tree_4_3_u02_r19_network.client[22] 	hdistance[22] 	2.5911786818144
scalar tree_4_3_u02_r19_network.client[22] 	downloads[22] 	11971
scalar tree_4_3_u02_r19_network.client[22] 	avg_time[22] 	0.00406766054
scalar tree_4_3_u02_r19_network.client[23] 	hdistance[23] 	2.6315612946504
scalar tree_4_3_u02_r19_network.client[23] 	downloads[23] 	11926
scalar tree_4_3_u02_r19_network.client[23] 	avg_time[23] 	0.00412107704
scalar tree_4_3_u02_r19_network.client[24] 	hdistance[24] 	2.6420617513076
scalar tree_4_3_u02_r19_network.client[24] 	downloads[24] 	11854
scalar tree_4_3_u02_r19_network.client[24] 	avg_time[24] 	0.004142058762
scalar tree_4_3_u02_r19_network.client[25] 	hdistance[25] 	2.65769262532
scalar tree_4_3_u02_r19_network.client[25] 	downloads[25] 	12109
scalar tree_4_3_u02_r19_network.client[25] 	avg_time[25] 	0.004140553585
scalar tree_4_3_u02_r19_network.client[26] 	hdistance[26] 	2.6342405913978
scalar tree_4_3_u02_r19_network.client[26] 	downloads[26] 	11904
scalar tree_4_3_u02_r19_network.client[26] 	avg_time[26] 	0.004103995698
scalar tree_4_3_u02_r19_network.client[27] 	hdistance[27] 	2.6552813097316
scalar tree_4_3_u02_r19_network.client[27] 	downloads[27] 	12033
scalar tree_4_3_u02_r19_network.client[27] 	avg_time[27] 	0.004141275122
scalar tree_4_3_u02_r19_network.client[28] 	hdistance[28] 	2.5647599164927
scalar tree_4_3_u02_r19_network.client[28] 	downloads[28] 	11975
scalar tree_4_3_u02_r19_network.client[28] 	avg_time[28] 	0.004013859234
scalar tree_4_3_u02_r19_network.client[29] 	hdistance[29] 	2.6521846052955
scalar tree_4_3_u02_r19_network.client[29] 	downloads[29] 	12199
scalar tree_4_3_u02_r19_network.client[29] 	avg_time[29] 	0.004134762077
scalar tree_4_3_u02_r19_network.client[30] 	hdistance[30] 	2.6552444630171
scalar tree_4_3_u02_r19_network.client[30] 	downloads[30] 	11965
scalar tree_4_3_u02_r19_network.client[30] 	avg_time[30] 	0.004141910933
scalar tree_4_3_u02_r19_network.client[31] 	hdistance[31] 	2.6461755433881
scalar tree_4_3_u02_r19_network.client[31] 	downloads[31] 	12054
scalar tree_4_3_u02_r19_network.client[31] 	avg_time[31] 	0.004110997485
scalar tree_4_3_u02_r19_network.client[32] 	hdistance[32] 	2.6097199341021
scalar tree_4_3_u02_r19_network.client[32] 	downloads[32] 	12140
scalar tree_4_3_u02_r19_network.client[32] 	avg_time[32] 	0.004027674066
scalar tree_4_3_u02_r19_network.client[33] 	hdistance[33] 	2.6459472899055
scalar tree_4_3_u02_r19_network.client[33] 	downloads[33] 	12066
scalar tree_4_3_u02_r19_network.client[33] 	avg_time[33] 	0.004105914457
scalar tree_4_3_u02_r19_network.client[34] 	hdistance[34] 	2.6147540983607
scalar tree_4_3_u02_r19_network.client[34] 	downloads[34] 	11712
scalar tree_4_3_u02_r19_network.client[34] 	avg_time[34] 	0.004066424657
scalar tree_4_3_u02_r19_network.client[35] 	hdistance[35] 	2.6584005991512
scalar tree_4_3_u02_r19_network.client[35] 	downloads[35] 	12017
scalar tree_4_3_u02_r19_network.client[35] 	avg_time[35] 	0.004129147353
scalar tree_4_3_u02_r19_network.client[36] 	hdistance[36] 	2.621502698215
scalar tree_4_3_u02_r19_network.client[36] 	downloads[36] 	12045
scalar tree_4_3_u02_r19_network.client[36] 	avg_time[36] 	0.004070399655
scalar tree_4_3_u02_r19_network.client[37] 	hdistance[37] 	2.6070831941196
scalar tree_4_3_u02_r19_network.client[37] 	downloads[37] 	11972
scalar tree_4_3_u02_r19_network.client[37] 	avg_time[37] 	0.004028730729
scalar tree_4_3_u02_r19_network.client[38] 	hdistance[38] 	2.6646846997739
scalar tree_4_3_u02_r19_network.client[38] 	downloads[38] 	11941
scalar tree_4_3_u02_r19_network.client[38] 	avg_time[38] 	0.004140688749
scalar tree_4_3_u02_r19_network.client[39] 	hdistance[39] 	2.651317409505
scalar tree_4_3_u02_r19_network.client[39] 	downloads[39] 	12183
scalar tree_4_3_u02_r19_network.client[39] 	avg_time[39] 	0.004119965114
