version 2
run General-192-20160820-01:30:29-9589
attr a 0.9
attr cd fix0.01
attr configname General
attr cr lru
attr datetime 20160820-01:30:29
attr experiment General
attr fsize 1
attr inifile hw5115/scenario_A/SPR-FIX0.01.ini
attr iterationvars "$name=tree_4_3, $un=09, $rep=13, $cd=fix0.01, $cr=lru, $fsize=1, $a=0.9, $sl=spr, $ttl=1000, $variance=0.05"
attr iterationvars2 "$name=tree_4_3, $un=09, $rep=13, $cd=fix0.01, $cr=lru, $fsize=1, $a=0.9, $sl=spr, $ttl=1000, $variance=0.05, $repetition=0"
attr measurement "$name=tree_4_3, $un=09, $rep=13, $cd=fix0.01, $cr=lru, $fsize=1, $a=0.9, $sl=spr, $ttl=1000, $variance=0.05"
attr name tree_4_3
attr network networks.${name}_u${un}_r${rep}_network
attr processid 9589
attr rep 13
attr repetition 0
attr replication #0
attr resultdir results
attr runnumber 192
attr seedset 13
attr sl spr
attr ttl 1000
attr un 09
attr variance 0.05

scalar . 	a 	0.9
scalar . 	fsize 	1
scalar . 	rep 	13
scalar . 	ttl 	1000
scalar . 	un 	09
scalar . 	variance 	0.05
scalar tree_4_3_u09_r13_network.content_distribution 	repo-0 	0
scalar tree_4_3_u09_r13_network.content_distribution 	client-0 	13
scalar tree_4_3_u09_r13_network.content_distribution 	client-1 	14
scalar tree_4_3_u09_r13_network.content_distribution 	client-2 	15
scalar tree_4_3_u09_r13_network.content_distribution 	client-3 	16
scalar tree_4_3_u09_r13_network.content_distribution 	client-4 	17
scalar tree_4_3_u09_r13_network.content_distribution 	client-5 	18
scalar tree_4_3_u09_r13_network.content_distribution 	client-6 	19
scalar tree_4_3_u09_r13_network.content_distribution 	client-7 	20
scalar tree_4_3_u09_r13_network.content_distribution 	client-8 	21
scalar tree_4_3_u09_r13_network.content_distribution 	client-9 	22
scalar tree_4_3_u09_r13_network.content_distribution 	client-10 	23
scalar tree_4_3_u09_r13_network.content_distribution 	client-11 	24
scalar tree_4_3_u09_r13_network.content_distribution 	client-12 	25
scalar tree_4_3_u09_r13_network.content_distribution 	client-13 	26
scalar tree_4_3_u09_r13_network.content_distribution 	client-14 	27
scalar tree_4_3_u09_r13_network.content_distribution 	client-15 	28
scalar tree_4_3_u09_r13_network.content_distribution 	client-16 	29
scalar tree_4_3_u09_r13_network.content_distribution 	client-17 	30
scalar tree_4_3_u09_r13_network.content_distribution 	client-18 	31
scalar tree_4_3_u09_r13_network.content_distribution 	client-19 	32
scalar tree_4_3_u09_r13_network.content_distribution 	client-20 	33
scalar tree_4_3_u09_r13_network.content_distribution 	client-21 	34
scalar tree_4_3_u09_r13_network.content_distribution 	client-22 	35
scalar tree_4_3_u09_r13_network.content_distribution 	client-23 	36
scalar tree_4_3_u09_r13_network.content_distribution 	client-24 	37
scalar tree_4_3_u09_r13_network.content_distribution 	client-25 	38
scalar tree_4_3_u09_r13_network.content_distribution 	client-26 	39
scalar tree_4_3_u09_r13_network.content_distribution 	repo-0_card 	100000
scalar tree_4_3_u09_r13_network.content_distribution 	repo-0_price 	0
scalar tree_4_3_u09_r13_network.statistics 	stabilization_time 	2569.2
scalar tree_4_3_u09_r13_network.statistics 	p_hit 	0.17943488938027
scalar tree_4_3_u09_r13_network.statistics 	interests 	25662.925
scalar tree_4_3_u09_r13_network.statistics 	data 	17564.525
scalar tree_4_3_u09_r13_network.statistics 	hdistance 	2.8507938383769
scalar tree_4_3_u09_r13_network.statistics 	avg_time 	0.004337897013
scalar tree_4_3_u09_r13_network.statistics 	downloads 	323931
scalar tree_4_3_u09_r13_network.statistics 	total_cost 	0
scalar tree_4_3_u09_r13_network.statistics 	total_replicas 	100000
scalar tree_4_3_u09_r13_network.statistics 	inner_hit 	0.31824678712442
scalar tree_4_3_u09_r13_network.node[0].core_layer 	interests[0] 	225597
scalar tree_4_3_u09_r13_network.node[0].core_layer 	repo_load[0] 	220841
scalar tree_4_3_u09_r13_network.node[0].core_layer 	data[0] 	0
scalar tree_4_3_u09_r13_network.node[0].core_layer 	repo_int[0] 	220841
scalar tree_4_3_u09_r13_network.node[0].content_store 	p_hit[0] 	0.021081840627313
scalar tree_4_3_u09_r13_network.node[0].content_store 	hits[0] 	4756
scalar tree_4_3_u09_r13_network.node[0].content_store 	misses[0] 	220841
scalar tree_4_3_u09_r13_network.node[0].content_store 	decision_yes[0] 	2191
scalar tree_4_3_u09_r13_network.node[0].content_store 	decision_no[0] 	218650
scalar tree_4_3_u09_r13_network.node[0].content_store 	decision_ratio[0] 	0.0099211650010641
scalar tree_4_3_u09_r13_network.node[1].core_layer 	interests[1] 	120435
scalar tree_4_3_u09_r13_network.node[1].core_layer 	data[1] 	116929
scalar tree_4_3_u09_r13_network.node[1].content_store 	p_hit[1] 	0.029077925852119
scalar tree_4_3_u09_r13_network.node[1].content_store 	hits[1] 	3502
scalar tree_4_3_u09_r13_network.node[1].content_store 	misses[1] 	116933
scalar tree_4_3_u09_r13_network.node[1].content_store 	decision_yes[1] 	1176
scalar tree_4_3_u09_r13_network.node[1].content_store 	decision_no[1] 	115753
scalar tree_4_3_u09_r13_network.node[1].content_store 	decision_ratio[1] 	0.010057385250879
scalar tree_4_3_u09_r13_network.node[2].core_layer 	interests[2] 	102897
scalar tree_4_3_u09_r13_network.node[2].core_layer 	data[2] 	100403
scalar tree_4_3_u09_r13_network.node[2].content_store 	p_hit[2] 	0.024198956237791
scalar tree_4_3_u09_r13_network.node[2].content_store 	hits[2] 	2490
scalar tree_4_3_u09_r13_network.node[2].content_store 	misses[2] 	100407
scalar tree_4_3_u09_r13_network.node[2].content_store 	decision_yes[2] 	1008
scalar tree_4_3_u09_r13_network.node[2].content_store 	decision_no[2] 	99395
scalar tree_4_3_u09_r13_network.node[2].content_store 	decision_ratio[2] 	0.010039540651176
scalar tree_4_3_u09_r13_network.node[3].core_layer 	interests[3] 	8550
scalar tree_4_3_u09_r13_network.node[3].core_layer 	data[3] 	8265
scalar tree_4_3_u09_r13_network.node[3].content_store 	p_hit[3] 	0.033333333333333
scalar tree_4_3_u09_r13_network.node[3].content_store 	hits[3] 	285
scalar tree_4_3_u09_r13_network.node[3].content_store 	misses[3] 	8265
scalar tree_4_3_u09_r13_network.node[3].content_store 	decision_yes[3] 	79
scalar tree_4_3_u09_r13_network.node[3].content_store 	decision_no[3] 	8186
scalar tree_4_3_u09_r13_network.node[3].content_store 	decision_ratio[3] 	0.0095583787053841
scalar tree_4_3_u09_r13_network.node[4].core_layer 	interests[4] 	45168
scalar tree_4_3_u09_r13_network.node[4].core_layer 	data[4] 	42849
scalar tree_4_3_u09_r13_network.node[4].content_store 	p_hit[4] 	0.051253099539497
scalar tree_4_3_u09_r13_network.node[4].content_store 	hits[4] 	2315
scalar tree_4_3_u09_r13_network.node[4].content_store 	misses[4] 	42853
scalar tree_4_3_u09_r13_network.node[4].content_store 	decision_yes[4] 	419
scalar tree_4_3_u09_r13_network.node[4].content_store 	decision_no[4] 	42430
scalar tree_4_3_u09_r13_network.node[4].content_store 	decision_ratio[4] 	0.0097785245863381
scalar tree_4_3_u09_r13_network.node[5].core_layer 	interests[5] 	27139
scalar tree_4_3_u09_r13_network.node[5].core_layer 	data[5] 	25734
scalar tree_4_3_u09_r13_network.node[5].content_store 	p_hit[5] 	0.051733667415896
scalar tree_4_3_u09_r13_network.node[5].content_store 	hits[5] 	1404
scalar tree_4_3_u09_r13_network.node[5].content_store 	misses[5] 	25735
scalar tree_4_3_u09_r13_network.node[5].content_store 	decision_yes[5] 	267
scalar tree_4_3_u09_r13_network.node[5].content_store 	decision_no[5] 	25467
scalar tree_4_3_u09_r13_network.node[5].content_store 	decision_ratio[5] 	0.010375378876195
scalar tree_4_3_u09_r13_network.node[6].core_layer 	interests[6] 	9121
scalar tree_4_3_u09_r13_network.node[6].core_layer 	data[6] 	8488
scalar tree_4_3_u09_r13_network.node[6].content_store 	p_hit[6] 	0.069400285056463
scalar tree_4_3_u09_r13_network.node[6].content_store 	hits[6] 	633
scalar tree_4_3_u09_r13_network.node[6].content_store 	misses[6] 	8488
scalar tree_4_3_u09_r13_network.node[6].content_store 	decision_yes[6] 	79
scalar tree_4_3_u09_r13_network.node[6].content_store 	decision_no[6] 	8409
scalar tree_4_3_u09_r13_network.node[6].content_store 	decision_ratio[6] 	0.0093072573044298
scalar tree_4_3_u09_r13_network.node[7].core_layer 	interests[7] 	45503
scalar tree_4_3_u09_r13_network.node[7].core_layer 	data[7] 	42849
scalar tree_4_3_u09_r13_network.node[7].content_store 	p_hit[7] 	0.058325824670901
scalar tree_4_3_u09_r13_network.node[7].content_store 	hits[7] 	2654
scalar tree_4_3_u09_r13_network.node[7].content_store 	misses[7] 	42849
scalar tree_4_3_u09_r13_network.node[7].content_store 	decision_yes[7] 	394
scalar tree_4_3_u09_r13_network.node[7].content_store 	decision_no[7] 	42455
scalar tree_4_3_u09_r13_network.node[7].content_store 	decision_ratio[7] 	0.0091950803986091
scalar tree_4_3_u09_r13_network.node[8].core_layer 	interests[8] 	27087
scalar tree_4_3_u09_r13_network.node[8].core_layer 	data[8] 	25514
scalar tree_4_3_u09_r13_network.node[8].content_store 	p_hit[8] 	0.058072137925942
scalar tree_4_3_u09_r13_network.node[8].content_store 	hits[8] 	1573
scalar tree_4_3_u09_r13_network.node[8].content_store 	misses[8] 	25514
scalar tree_4_3_u09_r13_network.node[8].content_store 	decision_yes[8] 	224
scalar tree_4_3_u09_r13_network.node[8].content_store 	decision_no[8] 	25290
scalar tree_4_3_u09_r13_network.node[8].content_store 	decision_ratio[8] 	0.0087794936113506
scalar tree_4_3_u09_r13_network.node[9].core_layer 	interests[9] 	9226
scalar tree_4_3_u09_r13_network.node[9].core_layer 	data[9] 	8771
scalar tree_4_3_u09_r13_network.node[9].content_store 	p_hit[9] 	0.049317147192716
scalar tree_4_3_u09_r13_network.node[9].content_store 	hits[9] 	455
scalar tree_4_3_u09_r13_network.node[9].content_store 	misses[9] 	8771
scalar tree_4_3_u09_r13_network.node[9].content_store 	decision_yes[9] 	86
scalar tree_4_3_u09_r13_network.node[9].content_store 	decision_no[9] 	8685
scalar tree_4_3_u09_r13_network.node[9].content_store 	decision_ratio[9] 	0.0098050393341694
scalar tree_4_3_u09_r13_network.node[10].core_layer 	interests[10] 	45655
scalar tree_4_3_u09_r13_network.node[10].core_layer 	data[10] 	43363
scalar tree_4_3_u09_r13_network.node[10].content_store 	p_hit[10] 	0.050180703099332
scalar tree_4_3_u09_r13_network.node[10].content_store 	hits[10] 	2291
scalar tree_4_3_u09_r13_network.node[10].content_store 	misses[10] 	43364
scalar tree_4_3_u09_r13_network.node[10].content_store 	decision_yes[10] 	436
scalar tree_4_3_u09_r13_network.node[10].content_store 	decision_no[10] 	42927
scalar tree_4_3_u09_r13_network.node[10].content_store 	decision_ratio[10] 	0.010054654890114
scalar tree_4_3_u09_r13_network.node[11].core_layer 	interests[11] 	27087
scalar tree_4_3_u09_r13_network.node[11].core_layer 	data[11] 	25764
scalar tree_4_3_u09_r13_network.node[11].content_store 	p_hit[11] 	0.048805700151364
scalar tree_4_3_u09_r13_network.node[11].content_store 	hits[11] 	1322
scalar tree_4_3_u09_r13_network.node[11].content_store 	misses[11] 	25765
scalar tree_4_3_u09_r13_network.node[11].content_store 	decision_yes[11] 	246
scalar tree_4_3_u09_r13_network.node[11].content_store 	decision_no[11] 	25518
scalar tree_4_3_u09_r13_network.node[11].content_store 	decision_ratio[11] 	0.0095482068001863
scalar tree_4_3_u09_r13_network.node[12].core_layer 	interests[12] 	9117
scalar tree_4_3_u09_r13_network.node[12].core_layer 	data[12] 	8550
scalar tree_4_3_u09_r13_network.node[12].content_store 	p_hit[12] 	0.062191510365252
scalar tree_4_3_u09_r13_network.node[12].content_store 	hits[12] 	567
scalar tree_4_3_u09_r13_network.node[12].content_store 	misses[12] 	8550
scalar tree_4_3_u09_r13_network.node[12].content_store 	decision_yes[12] 	71
scalar tree_4_3_u09_r13_network.node[12].content_store 	decision_no[12] 	8479
scalar tree_4_3_u09_r13_network.node[12].content_store 	decision_ratio[12] 	0.0083040935672515
scalar tree_4_3_u09_r13_network.node[13].core_layer 	interests[13] 	11806
scalar tree_4_3_u09_r13_network.node[13].core_layer 	data[13] 	8838
scalar tree_4_3_u09_r13_network.node[13].content_store 	p_hit[13] 	0.2513975944435
scalar tree_4_3_u09_r13_network.node[13].content_store 	hits[13] 	2968
scalar tree_4_3_u09_r13_network.node[13].content_store 	misses[13] 	8838
scalar tree_4_3_u09_r13_network.node[13].content_store 	decision_yes[13] 	81
scalar tree_4_3_u09_r13_network.node[13].content_store 	decision_no[13] 	8757
scalar tree_4_3_u09_r13_network.node[13].content_store 	decision_ratio[13] 	0.0091649694501018
scalar tree_4_3_u09_r13_network.node[14].core_layer 	interests[14] 	11980
scalar tree_4_3_u09_r13_network.node[14].core_layer 	data[14] 	9093
scalar tree_4_3_u09_r13_network.node[14].content_store 	p_hit[14] 	0.24098497495826
scalar tree_4_3_u09_r13_network.node[14].content_store 	hits[14] 	2887
scalar tree_4_3_u09_r13_network.node[14].content_store 	misses[14] 	9093
scalar tree_4_3_u09_r13_network.node[14].content_store 	decision_yes[14] 	105
scalar tree_4_3_u09_r13_network.node[14].content_store 	decision_no[14] 	8988
scalar tree_4_3_u09_r13_network.node[14].content_store 	decision_ratio[14] 	0.011547344110855
scalar tree_4_3_u09_r13_network.node[15].core_layer 	interests[15] 	12139
scalar tree_4_3_u09_r13_network.node[15].core_layer 	data[15] 	9091
scalar tree_4_3_u09_r13_network.node[15].content_store 	p_hit[15] 	0.25109152318972
scalar tree_4_3_u09_r13_network.node[15].content_store 	hits[15] 	3048
scalar tree_4_3_u09_r13_network.node[15].content_store 	misses[15] 	9091
scalar tree_4_3_u09_r13_network.node[15].content_store 	decision_yes[15] 	82
scalar tree_4_3_u09_r13_network.node[15].content_store 	decision_no[15] 	9009
scalar tree_4_3_u09_r13_network.node[15].content_store 	decision_ratio[15] 	0.009019909800902
scalar tree_4_3_u09_r13_network.node[16].core_layer 	interests[16] 	12041
scalar tree_4_3_u09_r13_network.node[16].core_layer 	data[16] 	9153
scalar tree_4_3_u09_r13_network.node[16].content_store 	p_hit[16] 	0.2397641391911
scalar tree_4_3_u09_r13_network.node[16].content_store 	hits[16] 	2887
scalar tree_4_3_u09_r13_network.node[16].content_store 	misses[16] 	9154
scalar tree_4_3_u09_r13_network.node[16].content_store 	decision_yes[16] 	90
scalar tree_4_3_u09_r13_network.node[16].content_store 	decision_no[16] 	9063
scalar tree_4_3_u09_r13_network.node[16].content_store 	decision_ratio[16] 	0.0098328416912488
scalar tree_4_3_u09_r13_network.node[17].core_layer 	interests[17] 	12014
scalar tree_4_3_u09_r13_network.node[17].core_layer 	data[17] 	9159
scalar tree_4_3_u09_r13_network.node[17].content_store 	p_hit[17] 	0.23763942067588
scalar tree_4_3_u09_r13_network.node[17].content_store 	hits[17] 	2855
scalar tree_4_3_u09_r13_network.node[17].content_store 	misses[17] 	9159
scalar tree_4_3_u09_r13_network.node[17].content_store 	decision_yes[17] 	90
scalar tree_4_3_u09_r13_network.node[17].content_store 	decision_no[17] 	9069
scalar tree_4_3_u09_r13_network.node[17].content_store 	decision_ratio[17] 	0.0098264002620373
scalar tree_4_3_u09_r13_network.node[18].core_layer 	interests[18] 	11970
scalar tree_4_3_u09_r13_network.node[18].core_layer 	data[18] 	8882
scalar tree_4_3_u09_r13_network.node[18].content_store 	p_hit[18] 	0.25797827903091
scalar tree_4_3_u09_r13_network.node[18].content_store 	hits[18] 	3088
scalar tree_4_3_u09_r13_network.node[18].content_store 	misses[18] 	8882
scalar tree_4_3_u09_r13_network.node[18].content_store 	decision_yes[18] 	92
scalar tree_4_3_u09_r13_network.node[18].content_store 	decision_no[18] 	8790
scalar tree_4_3_u09_r13_network.node[18].content_store 	decision_ratio[18] 	0.01035802747129
scalar tree_4_3_u09_r13_network.node[19].core_layer 	interests[19] 	11920
scalar tree_4_3_u09_r13_network.node[19].core_layer 	data[19] 	8992
scalar tree_4_3_u09_r13_network.node[19].content_store 	p_hit[19] 	0.24546979865772
scalar tree_4_3_u09_r13_network.node[19].content_store 	hits[19] 	2926
scalar tree_4_3_u09_r13_network.node[19].content_store 	misses[19] 	8994
scalar tree_4_3_u09_r13_network.node[19].content_store 	decision_yes[19] 	88
scalar tree_4_3_u09_r13_network.node[19].content_store 	decision_no[19] 	8904
scalar tree_4_3_u09_r13_network.node[19].content_store 	decision_ratio[19] 	0.0097864768683274
scalar tree_4_3_u09_r13_network.node[20].core_layer 	interests[20] 	11931
scalar tree_4_3_u09_r13_network.node[20].core_layer 	data[20] 	9098
scalar tree_4_3_u09_r13_network.node[20].content_store 	p_hit[20] 	0.23744866314643
scalar tree_4_3_u09_r13_network.node[20].content_store 	hits[20] 	2833
scalar tree_4_3_u09_r13_network.node[20].content_store 	misses[20] 	9098
scalar tree_4_3_u09_r13_network.node[20].content_store 	decision_yes[20] 	74
scalar tree_4_3_u09_r13_network.node[20].content_store 	decision_no[20] 	9024
scalar tree_4_3_u09_r13_network.node[20].content_store 	decision_ratio[20] 	0.0081336557485162
scalar tree_4_3_u09_r13_network.node[21].core_layer 	interests[21] 	11991
scalar tree_4_3_u09_r13_network.node[21].core_layer 	data[21] 	9121
scalar tree_4_3_u09_r13_network.node[21].content_store 	p_hit[21] 	0.23934617629889
scalar tree_4_3_u09_r13_network.node[21].content_store 	hits[21] 	2870
scalar tree_4_3_u09_r13_network.node[21].content_store 	misses[21] 	9121
scalar tree_4_3_u09_r13_network.node[21].content_store 	decision_yes[21] 	94
scalar tree_4_3_u09_r13_network.node[21].content_store 	decision_no[21] 	9027
scalar tree_4_3_u09_r13_network.node[21].content_store 	decision_ratio[21] 	0.010305887512334
scalar tree_4_3_u09_r13_network.node[22].core_layer 	interests[22] 	12129
scalar tree_4_3_u09_r13_network.node[22].core_layer 	data[22] 	9232
scalar tree_4_3_u09_r13_network.node[22].content_store 	p_hit[22] 	0.23884903949213
scalar tree_4_3_u09_r13_network.node[22].content_store 	hits[22] 	2897
scalar tree_4_3_u09_r13_network.node[22].content_store 	misses[22] 	9232
scalar tree_4_3_u09_r13_network.node[22].content_store 	decision_yes[22] 	113
scalar tree_4_3_u09_r13_network.node[22].content_store 	decision_no[22] 	9119
scalar tree_4_3_u09_r13_network.node[22].content_store 	decision_ratio[22] 	0.012240034662045
scalar tree_4_3_u09_r13_network.node[23].core_layer 	interests[23] 	11930
scalar tree_4_3_u09_r13_network.node[23].core_layer 	data[23] 	9063
scalar tree_4_3_u09_r13_network.node[23].content_store 	p_hit[23] 	0.24031852472758
scalar tree_4_3_u09_r13_network.node[23].content_store 	hits[23] 	2867
scalar tree_4_3_u09_r13_network.node[23].content_store 	misses[23] 	9063
scalar tree_4_3_u09_r13_network.node[23].content_store 	decision_yes[23] 	94
scalar tree_4_3_u09_r13_network.node[23].content_store 	decision_no[23] 	8969
scalar tree_4_3_u09_r13_network.node[23].content_store 	decision_ratio[23] 	0.010371841553569
scalar tree_4_3_u09_r13_network.node[24].core_layer 	interests[24] 	11958
scalar tree_4_3_u09_r13_network.node[24].core_layer 	data[24] 	9066
scalar tree_4_3_u09_r13_network.node[24].content_store 	p_hit[24] 	0.24184646261917
scalar tree_4_3_u09_r13_network.node[24].content_store 	hits[24] 	2892
scalar tree_4_3_u09_r13_network.node[24].content_store 	misses[24] 	9066
scalar tree_4_3_u09_r13_network.node[24].content_store 	decision_yes[24] 	87
scalar tree_4_3_u09_r13_network.node[24].content_store 	decision_no[24] 	8979
scalar tree_4_3_u09_r13_network.node[24].content_store 	decision_ratio[24] 	0.0095962938451357
scalar tree_4_3_u09_r13_network.node[25].core_layer 	interests[25] 	11923
scalar tree_4_3_u09_r13_network.node[25].core_layer 	data[25] 	9044
scalar tree_4_3_u09_r13_network.node[25].content_store 	p_hit[25] 	0.24146607397467
scalar tree_4_3_u09_r13_network.node[25].content_store 	hits[25] 	2879
scalar tree_4_3_u09_r13_network.node[25].content_store 	misses[25] 	9044
scalar tree_4_3_u09_r13_network.node[25].content_store 	decision_yes[25] 	123
scalar tree_4_3_u09_r13_network.node[25].content_store 	decision_no[25] 	8921
scalar tree_4_3_u09_r13_network.node[25].content_store 	decision_ratio[25] 	0.01360017691287
scalar tree_4_3_u09_r13_network.node[26].core_layer 	interests[26] 	12032
scalar tree_4_3_u09_r13_network.node[26].core_layer 	data[26] 	9161
scalar tree_4_3_u09_r13_network.node[26].content_store 	p_hit[26] 	0.23861369680851
scalar tree_4_3_u09_r13_network.node[26].content_store 	hits[26] 	2871
scalar tree_4_3_u09_r13_network.node[26].content_store 	misses[26] 	9161
scalar tree_4_3_u09_r13_network.node[26].content_store 	decision_yes[26] 	85
scalar tree_4_3_u09_r13_network.node[26].content_store 	decision_no[26] 	9076
scalar tree_4_3_u09_r13_network.node[26].content_store 	decision_ratio[26] 	0.0092784630498854
scalar tree_4_3_u09_r13_network.node[27].core_layer 	interests[27] 	11777
scalar tree_4_3_u09_r13_network.node[27].core_layer 	data[27] 	8880
scalar tree_4_3_u09_r13_network.node[27].content_store 	p_hit[27] 	0.24598794259998
scalar tree_4_3_u09_r13_network.node[27].content_store 	hits[27] 	2897
scalar tree_4_3_u09_r13_network.node[27].content_store 	misses[27] 	8880
scalar tree_4_3_u09_r13_network.node[27].content_store 	decision_yes[27] 	106
scalar tree_4_3_u09_r13_network.node[27].content_store 	decision_no[27] 	8774
scalar tree_4_3_u09_r13_network.node[27].content_store 	decision_ratio[27] 	0.011936936936937
scalar tree_4_3_u09_r13_network.node[28].core_layer 	interests[28] 	12002
scalar tree_4_3_u09_r13_network.node[28].core_layer 	data[28] 	9099
scalar tree_4_3_u09_r13_network.node[28].content_store 	p_hit[28] 	0.24187635394101
scalar tree_4_3_u09_r13_network.node[28].content_store 	hits[28] 	2903
scalar tree_4_3_u09_r13_network.node[28].content_store 	misses[28] 	9099
scalar tree_4_3_u09_r13_network.node[28].content_store 	decision_yes[28] 	91
scalar tree_4_3_u09_r13_network.node[28].content_store 	decision_no[28] 	9008
scalar tree_4_3_u09_r13_network.node[28].content_store 	decision_ratio[28] 	0.010001099021871
scalar tree_4_3_u09_r13_network.node[29].core_layer 	interests[29] 	11906
scalar tree_4_3_u09_r13_network.node[29].core_layer 	data[29] 	9046
scalar tree_4_3_u09_r13_network.node[29].content_store 	p_hit[29] 	0.24021501763817
scalar tree_4_3_u09_r13_network.node[29].content_store 	hits[29] 	2860
scalar tree_4_3_u09_r13_network.node[29].content_store 	misses[29] 	9046
scalar tree_4_3_u09_r13_network.node[29].content_store 	decision_yes[29] 	100
scalar tree_4_3_u09_r13_network.node[29].content_store 	decision_no[29] 	8946
scalar tree_4_3_u09_r13_network.node[29].content_store 	decision_ratio[29] 	0.011054609772275
scalar tree_4_3_u09_r13_network.node[30].core_layer 	interests[30] 	12096
scalar tree_4_3_u09_r13_network.node[30].core_layer 	data[30] 	9226
scalar tree_4_3_u09_r13_network.node[30].content_store 	p_hit[30] 	0.23726851851852
scalar tree_4_3_u09_r13_network.node[30].content_store 	hits[30] 	2870
scalar tree_4_3_u09_r13_network.node[30].content_store 	misses[30] 	9226
scalar tree_4_3_u09_r13_network.node[30].content_store 	decision_yes[30] 	94
scalar tree_4_3_u09_r13_network.node[30].content_store 	decision_no[30] 	9132
scalar tree_4_3_u09_r13_network.node[30].content_store 	decision_ratio[30] 	0.010188597442012
scalar tree_4_3_u09_r13_network.node[31].core_layer 	interests[31] 	12175
scalar tree_4_3_u09_r13_network.node[31].core_layer 	data[31] 	9113
scalar tree_4_3_u09_r13_network.node[31].content_store 	p_hit[31] 	0.25149897330595
scalar tree_4_3_u09_r13_network.node[31].content_store 	hits[31] 	3062
scalar tree_4_3_u09_r13_network.node[31].content_store 	misses[31] 	9113
scalar tree_4_3_u09_r13_network.node[31].content_store 	decision_yes[31] 	80
scalar tree_4_3_u09_r13_network.node[31].content_store 	decision_no[31] 	9033
scalar tree_4_3_u09_r13_network.node[31].content_store 	decision_ratio[31] 	0.0087786678371557
scalar tree_4_3_u09_r13_network.node[32].core_layer 	interests[32] 	12004
scalar tree_4_3_u09_r13_network.node[32].core_layer 	data[32] 	9071
scalar tree_4_3_u09_r13_network.node[32].content_store 	p_hit[32] 	0.2443352215928
scalar tree_4_3_u09_r13_network.node[32].content_store 	hits[32] 	2933
scalar tree_4_3_u09_r13_network.node[32].content_store 	misses[32] 	9071
scalar tree_4_3_u09_r13_network.node[32].content_store 	decision_yes[32] 	103
scalar tree_4_3_u09_r13_network.node[32].content_store 	decision_no[32] 	8968
scalar tree_4_3_u09_r13_network.node[32].content_store 	decision_ratio[32] 	0.011354867159078
scalar tree_4_3_u09_r13_network.node[33].core_layer 	interests[33] 	12125
scalar tree_4_3_u09_r13_network.node[33].core_layer 	data[33] 	9107
scalar tree_4_3_u09_r13_network.node[33].content_store 	p_hit[33] 	0.24882474226804
scalar tree_4_3_u09_r13_network.node[33].content_store 	hits[33] 	3017
scalar tree_4_3_u09_r13_network.node[33].content_store 	misses[33] 	9108
scalar tree_4_3_u09_r13_network.node[33].content_store 	decision_yes[33] 	77
scalar tree_4_3_u09_r13_network.node[33].content_store 	decision_no[33] 	9030
scalar tree_4_3_u09_r13_network.node[33].content_store 	decision_ratio[33] 	0.0084550345887779
scalar tree_4_3_u09_r13_network.node[34].core_layer 	interests[34] 	12116
scalar tree_4_3_u09_r13_network.node[34].core_layer 	data[34] 	9148
scalar tree_4_3_u09_r13_network.node[34].content_store 	p_hit[34] 	0.24496533509409
scalar tree_4_3_u09_r13_network.node[34].content_store 	hits[34] 	2968
scalar tree_4_3_u09_r13_network.node[34].content_store 	misses[34] 	9148
scalar tree_4_3_u09_r13_network.node[34].content_store 	decision_yes[34] 	98
scalar tree_4_3_u09_r13_network.node[34].content_store 	decision_no[34] 	9050
scalar tree_4_3_u09_r13_network.node[34].content_store 	decision_ratio[34] 	0.010712724092698
scalar tree_4_3_u09_r13_network.node[35].core_layer 	interests[35] 	11871
scalar tree_4_3_u09_r13_network.node[35].core_layer 	data[35] 	8927
scalar tree_4_3_u09_r13_network.node[35].content_store 	p_hit[35] 	0.24799932608879
scalar tree_4_3_u09_r13_network.node[35].content_store 	hits[35] 	2944
scalar tree_4_3_u09_r13_network.node[35].content_store 	misses[35] 	8927
scalar tree_4_3_u09_r13_network.node[35].content_store 	decision_yes[35] 	103
scalar tree_4_3_u09_r13_network.node[35].content_store 	decision_no[35] 	8824
scalar tree_4_3_u09_r13_network.node[35].content_store 	decision_ratio[35] 	0.011538030693402
scalar tree_4_3_u09_r13_network.node[36].core_layer 	interests[36] 	12002
scalar tree_4_3_u09_r13_network.node[36].core_layer 	data[36] 	9121
scalar tree_4_3_u09_r13_network.node[36].content_store 	p_hit[36] 	0.24012664555907
scalar tree_4_3_u09_r13_network.node[36].content_store 	hits[36] 	2882
scalar tree_4_3_u09_r13_network.node[36].content_store 	misses[36] 	9120
scalar tree_4_3_u09_r13_network.node[36].content_store 	decision_yes[36] 	103
scalar tree_4_3_u09_r13_network.node[36].content_store 	decision_no[36] 	9018
scalar tree_4_3_u09_r13_network.node[36].content_store 	decision_ratio[36] 	0.01129262142309
scalar tree_4_3_u09_r13_network.node[37].core_layer 	interests[37] 	12154
scalar tree_4_3_u09_r13_network.node[37].core_layer 	data[37] 	9216
scalar tree_4_3_u09_r13_network.node[37].content_store 	p_hit[37] 	0.24173111732763
scalar tree_4_3_u09_r13_network.node[37].content_store 	hits[37] 	2938
scalar tree_4_3_u09_r13_network.node[37].content_store 	misses[37] 	9216
scalar tree_4_3_u09_r13_network.node[37].content_store 	decision_yes[37] 	102
scalar tree_4_3_u09_r13_network.node[37].content_store 	decision_no[37] 	9114
scalar tree_4_3_u09_r13_network.node[37].content_store 	decision_ratio[37] 	0.011067708333333
scalar tree_4_3_u09_r13_network.node[38].core_layer 	interests[38] 	11897
scalar tree_4_3_u09_r13_network.node[38].core_layer 	data[38] 	9038
scalar tree_4_3_u09_r13_network.node[38].content_store 	p_hit[38] 	0.24022862906615
scalar tree_4_3_u09_r13_network.node[38].content_store 	hits[38] 	2858
scalar tree_4_3_u09_r13_network.node[38].content_store 	misses[38] 	9039
scalar tree_4_3_u09_r13_network.node[38].content_store 	decision_yes[38] 	86
scalar tree_4_3_u09_r13_network.node[38].content_store 	decision_no[38] 	8952
scalar tree_4_3_u09_r13_network.node[38].content_store 	decision_ratio[38] 	0.0095153795087409
scalar tree_4_3_u09_r13_network.node[39].core_layer 	interests[39] 	12046
scalar tree_4_3_u09_r13_network.node[39].core_layer 	data[39] 	9117
scalar tree_4_3_u09_r13_network.node[39].content_store 	p_hit[39] 	0.24315125352814
scalar tree_4_3_u09_r13_network.node[39].content_store 	hits[39] 	2929
scalar tree_4_3_u09_r13_network.node[39].content_store 	misses[39] 	9117
scalar tree_4_3_u09_r13_network.node[39].content_store 	decision_yes[39] 	94
scalar tree_4_3_u09_r13_network.node[39].content_store 	decision_no[39] 	9023
scalar tree_4_3_u09_r13_network.node[39].content_store 	decision_ratio[39] 	0.010310409125809
scalar tree_4_3_u09_r13_network.client[13] 	hdistance[13] 	2.8378790445536
scalar tree_4_3_u09_r13_network.client[13] 	downloads[13] 	11806
scalar tree_4_3_u09_r13_network.client[13] 	avg_time[13] 	0.004312380618
scalar tree_4_3_u09_r13_network.client[14] 	hdistance[14] 	2.861101836394
scalar tree_4_3_u09_r13_network.client[14] 	downloads[14] 	11980
scalar tree_4_3_u09_r13_network.client[14] 	avg_time[14] 	0.004358051076
scalar tree_4_3_u09_r13_network.client[15] 	hdistance[15] 	2.8256858060796
scalar tree_4_3_u09_r13_network.client[15] 	downloads[15] 	12139
scalar tree_4_3_u09_r13_network.client[15] 	avg_time[15] 	0.004302365471
scalar tree_4_3_u09_r13_network.client[16] 	hdistance[16] 	2.8581395348837
scalar tree_4_3_u09_r13_network.client[16] 	downloads[16] 	12040
scalar tree_4_3_u09_r13_network.client[16] 	avg_time[16] 	0.004351325886
scalar tree_4_3_u09_r13_network.client[17] 	hdistance[17] 	2.853004827701
scalar tree_4_3_u09_r13_network.client[17] 	downloads[17] 	12014
scalar tree_4_3_u09_r13_network.client[17] 	avg_time[17] 	0.004344302288
scalar tree_4_3_u09_r13_network.client[18] 	hdistance[18] 	2.8231411862991
scalar tree_4_3_u09_r13_network.client[18] 	downloads[18] 	11970
scalar tree_4_3_u09_r13_network.client[18] 	avg_time[18] 	0.004286379648
scalar tree_4_3_u09_r13_network.client[19] 	hdistance[19] 	2.829585500923
scalar tree_4_3_u09_r13_network.client[19] 	downloads[19] 	11918
scalar tree_4_3_u09_r13_network.client[19] 	avg_time[19] 	0.004314247388
scalar tree_4_3_u09_r13_network.client[20] 	hdistance[20] 	2.8826586204006
scalar tree_4_3_u09_r13_network.client[20] 	downloads[20] 	11931
scalar tree_4_3_u09_r13_network.client[20] 	avg_time[20] 	0.00438621778
scalar tree_4_3_u09_r13_network.client[21] 	hdistance[21] 	2.8323742807105
scalar tree_4_3_u09_r13_network.client[21] 	downloads[21] 	11991
scalar tree_4_3_u09_r13_network.client[21] 	avg_time[21] 	0.004315733815
scalar tree_4_3_u09_r13_network.client[22] 	hdistance[22] 	2.8501937505153
scalar tree_4_3_u09_r13_network.client[22] 	downloads[22] 	12129
scalar tree_4_3_u09_r13_network.client[22] 	avg_time[22] 	0.00434017339
scalar tree_4_3_u09_r13_network.client[23] 	hdistance[23] 	2.8619446772841
scalar tree_4_3_u09_r13_network.client[23] 	downloads[23] 	11930
scalar tree_4_3_u09_r13_network.client[23] 	avg_time[23] 	0.004353224186
scalar tree_4_3_u09_r13_network.client[24] 	hdistance[24] 	2.857835758488
scalar tree_4_3_u09_r13_network.client[24] 	downloads[24] 	11958
scalar tree_4_3_u09_r13_network.client[24] 	avg_time[24] 	0.004345928582
scalar tree_4_3_u09_r13_network.client[25] 	hdistance[25] 	2.8580055355196
scalar tree_4_3_u09_r13_network.client[25] 	downloads[25] 	11923
scalar tree_4_3_u09_r13_network.client[25] 	avg_time[25] 	0.004346639702
scalar tree_4_3_u09_r13_network.client[26] 	hdistance[26] 	2.862616356383
scalar tree_4_3_u09_r13_network.client[26] 	downloads[26] 	12032
scalar tree_4_3_u09_r13_network.client[26] 	avg_time[26] 	0.004354715323
scalar tree_4_3_u09_r13_network.client[27] 	hdistance[27] 	2.8519147490872
scalar tree_4_3_u09_r13_network.client[27] 	downloads[27] 	11777
scalar tree_4_3_u09_r13_network.client[27] 	avg_time[27] 	0.004336075817
scalar tree_4_3_u09_r13_network.client[28] 	hdistance[28] 	2.8419430094984
scalar tree_4_3_u09_r13_network.client[28] 	downloads[28] 	12002
scalar tree_4_3_u09_r13_network.client[28] 	avg_time[28] 	0.004325682317
scalar tree_4_3_u09_r13_network.client[29] 	hdistance[29] 	2.8466319502772
scalar tree_4_3_u09_r13_network.client[29] 	downloads[29] 	11906
scalar tree_4_3_u09_r13_network.client[29] 	avg_time[29] 	0.004330250664
scalar tree_4_3_u09_r13_network.client[30] 	hdistance[30] 	2.8920304232804
scalar tree_4_3_u09_r13_network.client[30] 	downloads[30] 	12096
scalar tree_4_3_u09_r13_network.client[30] 	avg_time[30] 	0.004394672879
scalar tree_4_3_u09_r13_network.client[31] 	hdistance[31] 	2.8252156057495
scalar tree_4_3_u09_r13_network.client[31] 	downloads[31] 	12175
scalar tree_4_3_u09_r13_network.client[31] 	avg_time[31] 	0.00430176285
scalar tree_4_3_u09_r13_network.client[32] 	hdistance[32] 	2.842469176941
scalar tree_4_3_u09_r13_network.client[32] 	downloads[32] 	12004
scalar tree_4_3_u09_r13_network.client[32] 	avg_time[32] 	0.004326866709
scalar tree_4_3_u09_r13_network.client[33] 	hdistance[33] 	2.8330583965688
scalar tree_4_3_u09_r13_network.client[33] 	downloads[33] 	12124
scalar tree_4_3_u09_r13_network.client[33] 	avg_time[33] 	0.004311605975
scalar tree_4_3_u09_r13_network.client[34] 	hdistance[34] 	2.8527566853747
scalar tree_4_3_u09_r13_network.client[34] 	downloads[34] 	12116
scalar tree_4_3_u09_r13_network.client[34] 	avg_time[34] 	0.004341307415
scalar tree_4_3_u09_r13_network.client[35] 	hdistance[35] 	2.8430629264594
scalar tree_4_3_u09_r13_network.client[35] 	downloads[35] 	11871
scalar tree_4_3_u09_r13_network.client[35] 	avg_time[35] 	0.004325702606
scalar tree_4_3_u09_r13_network.client[36] 	hdistance[36] 	2.8719486794968
scalar tree_4_3_u09_r13_network.client[36] 	downloads[36] 	12003
scalar tree_4_3_u09_r13_network.client[36] 	avg_time[36] 	0.004366022977
scalar tree_4_3_u09_r13_network.client[37] 	hdistance[37] 	2.8602929076847
scalar tree_4_3_u09_r13_network.client[37] 	downloads[37] 	12154
scalar tree_4_3_u09_r13_network.client[37] 	avg_time[37] 	0.004358232918
scalar tree_4_3_u09_r13_network.client[38] 	hdistance[38] 	2.8882817753867
scalar tree_4_3_u09_r13_network.client[38] 	downloads[38] 	11896
scalar tree_4_3_u09_r13_network.client[38] 	avg_time[38] 	0.004387858485
scalar tree_4_3_u09_r13_network.client[39] 	hdistance[39] 	2.8276606342354
scalar tree_4_3_u09_r13_network.client[39] 	downloads[39] 	12046
scalar tree_4_3_u09_r13_network.client[39] 	avg_time[39] 	0.004305492594
