version 2
run General-194-20160820-01:34:42-9589
attr a 0.9
attr cd fix0.01
attr configname General
attr cr lru
attr datetime 20160820-01:34:42
attr experiment General
attr fsize 1
attr inifile hw5115/scenario_A/SPR-FIX0.01.ini
attr iterationvars "$name=tree_4_3, $un=09, $rep=15, $cd=fix0.01, $cr=lru, $fsize=1, $a=0.9, $sl=spr, $ttl=1000, $variance=0.05"
attr iterationvars2 "$name=tree_4_3, $un=09, $rep=15, $cd=fix0.01, $cr=lru, $fsize=1, $a=0.9, $sl=spr, $ttl=1000, $variance=0.05, $repetition=0"
attr measurement "$name=tree_4_3, $un=09, $rep=15, $cd=fix0.01, $cr=lru, $fsize=1, $a=0.9, $sl=spr, $ttl=1000, $variance=0.05"
attr name tree_4_3
attr network networks.${name}_u${un}_r${rep}_network
attr processid 9589
attr rep 15
attr repetition 0
attr replication #0
attr resultdir results
attr runnumber 194
attr seedset 15
attr sl spr
attr ttl 1000
attr un 09
attr variance 0.05

scalar . 	a 	0.9
scalar . 	fsize 	1
scalar . 	rep 	15
scalar . 	ttl 	1000
scalar . 	un 	09
scalar . 	variance 	0.05
scalar tree_4_3_u09_r15_network.content_distribution 	repo-0 	0
scalar tree_4_3_u09_r15_network.content_distribution 	client-0 	13
scalar tree_4_3_u09_r15_network.content_distribution 	client-1 	14
scalar tree_4_3_u09_r15_network.content_distribution 	client-2 	15
scalar tree_4_3_u09_r15_network.content_distribution 	client-3 	16
scalar tree_4_3_u09_r15_network.content_distribution 	client-4 	17
scalar tree_4_3_u09_r15_network.content_distribution 	client-5 	18
scalar tree_4_3_u09_r15_network.content_distribution 	client-6 	19
scalar tree_4_3_u09_r15_network.content_distribution 	client-7 	20
scalar tree_4_3_u09_r15_network.content_distribution 	client-8 	21
scalar tree_4_3_u09_r15_network.content_distribution 	client-9 	22
scalar tree_4_3_u09_r15_network.content_distribution 	client-10 	23
scalar tree_4_3_u09_r15_network.content_distribution 	client-11 	24
scalar tree_4_3_u09_r15_network.content_distribution 	client-12 	25
scalar tree_4_3_u09_r15_network.content_distribution 	client-13 	26
scalar tree_4_3_u09_r15_network.content_distribution 	client-14 	27
scalar tree_4_3_u09_r15_network.content_distribution 	client-15 	28
scalar tree_4_3_u09_r15_network.content_distribution 	client-16 	29
scalar tree_4_3_u09_r15_network.content_distribution 	client-17 	30
scalar tree_4_3_u09_r15_network.content_distribution 	client-18 	31
scalar tree_4_3_u09_r15_network.content_distribution 	client-19 	32
scalar tree_4_3_u09_r15_network.content_distribution 	client-20 	33
scalar tree_4_3_u09_r15_network.content_distribution 	client-21 	34
scalar tree_4_3_u09_r15_network.content_distribution 	client-22 	35
scalar tree_4_3_u09_r15_network.content_distribution 	client-23 	36
scalar tree_4_3_u09_r15_network.content_distribution 	client-24 	37
scalar tree_4_3_u09_r15_network.content_distribution 	client-25 	38
scalar tree_4_3_u09_r15_network.content_distribution 	client-26 	39
scalar tree_4_3_u09_r15_network.content_distribution 	repo-0_card 	100000
scalar tree_4_3_u09_r15_network.content_distribution 	repo-0_price 	0
scalar tree_4_3_u09_r15_network.statistics 	stabilization_time 	2443.6
scalar tree_4_3_u09_r15_network.statistics 	p_hit 	0.17769016847475
scalar tree_4_3_u09_r15_network.statistics 	interests 	25701.025
scalar tree_4_3_u09_r15_network.statistics 	data 	17604.25
scalar tree_4_3_u09_r15_network.statistics 	hdistance 	2.8587885659704
scalar tree_4_3_u09_r15_network.statistics 	avg_time 	0.004348665768
scalar tree_4_3_u09_r15_network.statistics 	downloads 	323864
scalar tree_4_3_u09_r15_network.statistics 	total_cost 	0
scalar tree_4_3_u09_r15_network.statistics 	total_replicas 	100000
scalar tree_4_3_u09_r15_network.statistics 	inner_hit 	0.31560469826841
scalar tree_4_3_u09_r15_network.node[0].core_layer 	interests[0] 	225939
scalar tree_4_3_u09_r15_network.node[0].core_layer 	repo_load[0] 	221651
scalar tree_4_3_u09_r15_network.node[0].core_layer 	data[0] 	0
scalar tree_4_3_u09_r15_network.node[0].core_layer 	repo_int[0] 	221651
scalar tree_4_3_u09_r15_network.node[0].content_store 	p_hit[0] 	0.018978573862857
scalar tree_4_3_u09_r15_network.node[0].content_store 	hits[0] 	4288
scalar tree_4_3_u09_r15_network.node[0].content_store 	misses[0] 	221651
scalar tree_4_3_u09_r15_network.node[0].content_store 	decision_yes[0] 	2194
scalar tree_4_3_u09_r15_network.node[0].content_store 	decision_no[0] 	219457
scalar tree_4_3_u09_r15_network.node[0].content_store 	decision_ratio[0] 	0.0098984439501739
scalar tree_4_3_u09_r15_network.node[1].core_layer 	interests[1] 	163740
scalar tree_4_3_u09_r15_network.node[1].core_layer 	data[1] 	159270
scalar tree_4_3_u09_r15_network.node[1].content_store 	p_hit[1] 	0.027287162574814
scalar tree_4_3_u09_r15_network.node[1].content_store 	hits[1] 	4468
scalar tree_4_3_u09_r15_network.node[1].content_store 	misses[1] 	159272
scalar tree_4_3_u09_r15_network.node[1].content_store 	decision_yes[1] 	1644
scalar tree_4_3_u09_r15_network.node[1].content_store 	decision_no[1] 	157626
scalar tree_4_3_u09_r15_network.node[1].content_store 	decision_ratio[1] 	0.010322094556414
scalar tree_4_3_u09_r15_network.node[2].core_layer 	interests[2] 	60147
scalar tree_4_3_u09_r15_network.node[2].core_layer 	data[2] 	58412
scalar tree_4_3_u09_r15_network.node[2].content_store 	p_hit[2] 	0.028796116182021
scalar tree_4_3_u09_r15_network.node[2].content_store 	hits[2] 	1732
scalar tree_4_3_u09_r15_network.node[2].content_store 	misses[2] 	58415
scalar tree_4_3_u09_r15_network.node[2].content_store 	decision_yes[2] 	583
scalar tree_4_3_u09_r15_network.node[2].content_store 	decision_no[2] 	57829
scalar tree_4_3_u09_r15_network.node[2].content_store 	decision_ratio[2] 	0.0099808258577005
scalar tree_4_3_u09_r15_network.node[3].core_layer 	interests[3] 	8613
scalar tree_4_3_u09_r15_network.node[3].core_layer 	data[3] 	8256
scalar tree_4_3_u09_r15_network.node[3].content_store 	p_hit[3] 	0.041448972483455
scalar tree_4_3_u09_r15_network.node[3].content_store 	hits[3] 	357
scalar tree_4_3_u09_r15_network.node[3].content_store 	misses[3] 	8256
scalar tree_4_3_u09_r15_network.node[3].content_store 	decision_yes[3] 	71
scalar tree_4_3_u09_r15_network.node[3].content_store 	decision_no[3] 	8185
scalar tree_4_3_u09_r15_network.node[3].content_store 	decision_ratio[3] 	0.0085998062015504
scalar tree_4_3_u09_r15_network.node[4].core_layer 	interests[4] 	36604
scalar tree_4_3_u09_r15_network.node[4].core_layer 	data[4] 	34575
scalar tree_4_3_u09_r15_network.node[4].content_store 	p_hit[4] 	0.05540378100754
scalar tree_4_3_u09_r15_network.node[4].content_store 	hits[4] 	2028
scalar tree_4_3_u09_r15_network.node[4].content_store 	misses[4] 	34576
scalar tree_4_3_u09_r15_network.node[4].content_store 	decision_yes[4] 	333
scalar tree_4_3_u09_r15_network.node[4].content_store 	decision_no[4] 	34242
scalar tree_4_3_u09_r15_network.node[4].content_store 	decision_ratio[4] 	0.0096312364425163
scalar tree_4_3_u09_r15_network.node[5].core_layer 	interests[5] 	36068
scalar tree_4_3_u09_r15_network.node[5].core_layer 	data[5] 	34179
scalar tree_4_3_u09_r15_network.node[5].content_store 	p_hit[5] 	0.052317844072308
scalar tree_4_3_u09_r15_network.node[5].content_store 	hits[5] 	1887
scalar tree_4_3_u09_r15_network.node[5].content_store 	misses[5] 	34181
scalar tree_4_3_u09_r15_network.node[5].content_store 	decision_yes[5] 	319
scalar tree_4_3_u09_r15_network.node[5].content_store 	decision_no[5] 	33860
scalar tree_4_3_u09_r15_network.node[5].content_store 	decision_ratio[5] 	0.0093332163024079
scalar tree_4_3_u09_r15_network.node[6].core_layer 	interests[6] 	9277
scalar tree_4_3_u09_r15_network.node[6].core_layer 	data[6] 	8659
scalar tree_4_3_u09_r15_network.node[6].content_store 	p_hit[6] 	0.066616363048399
scalar tree_4_3_u09_r15_network.node[6].content_store 	hits[6] 	618
scalar tree_4_3_u09_r15_network.node[6].content_store 	misses[6] 	8659
scalar tree_4_3_u09_r15_network.node[6].content_store 	decision_yes[6] 	100
scalar tree_4_3_u09_r15_network.node[6].content_store 	decision_no[6] 	8559
scalar tree_4_3_u09_r15_network.node[6].content_store 	decision_ratio[6] 	0.011548677676406
scalar tree_4_3_u09_r15_network.node[7].core_layer 	interests[7] 	45926
scalar tree_4_3_u09_r15_network.node[7].core_layer 	data[7] 	43507
scalar tree_4_3_u09_r15_network.node[7].content_store 	p_hit[7] 	0.052628140922353
scalar tree_4_3_u09_r15_network.node[7].content_store 	hits[7] 	2417
scalar tree_4_3_u09_r15_network.node[7].content_store 	misses[7] 	43509
scalar tree_4_3_u09_r15_network.node[7].content_store 	decision_yes[7] 	439
scalar tree_4_3_u09_r15_network.node[7].content_store 	decision_no[7] 	43068
scalar tree_4_3_u09_r15_network.node[7].content_store 	decision_ratio[7] 	0.010090330291677
scalar tree_4_3_u09_r15_network.node[8].core_layer 	interests[8] 	27284
scalar tree_4_3_u09_r15_network.node[8].core_layer 	data[8] 	25645
scalar tree_4_3_u09_r15_network.node[8].content_store 	p_hit[8] 	0.060035185456678
scalar tree_4_3_u09_r15_network.node[8].content_store 	hits[8] 	1638
scalar tree_4_3_u09_r15_network.node[8].content_store 	misses[8] 	25646
scalar tree_4_3_u09_r15_network.node[8].content_store 	decision_yes[8] 	260
scalar tree_4_3_u09_r15_network.node[8].content_store 	decision_no[8] 	25385
scalar tree_4_3_u09_r15_network.node[8].content_store 	decision_ratio[8] 	0.010138428543576
scalar tree_4_3_u09_r15_network.node[9].core_layer 	interests[9] 	8982
scalar tree_4_3_u09_r15_network.node[9].core_layer 	data[9] 	8627
scalar tree_4_3_u09_r15_network.node[9].content_store 	p_hit[9] 	0.039523491427299
scalar tree_4_3_u09_r15_network.node[9].content_store 	hits[9] 	355
scalar tree_4_3_u09_r15_network.node[9].content_store 	misses[9] 	8627
scalar tree_4_3_u09_r15_network.node[9].content_store 	decision_yes[9] 	97
scalar tree_4_3_u09_r15_network.node[9].content_store 	decision_no[9] 	8530
scalar tree_4_3_u09_r15_network.node[9].content_store 	decision_ratio[9] 	0.011243769560682
scalar tree_4_3_u09_r15_network.node[10].core_layer 	interests[10] 	45423
scalar tree_4_3_u09_r15_network.node[10].core_layer 	data[10] 	42821
scalar tree_4_3_u09_r15_network.node[10].content_store 	p_hit[10] 	0.057283754925919
scalar tree_4_3_u09_r15_network.node[10].content_store 	hits[10] 	2602
scalar tree_4_3_u09_r15_network.node[10].content_store 	misses[10] 	42821
scalar tree_4_3_u09_r15_network.node[10].content_store 	decision_yes[10] 	431
scalar tree_4_3_u09_r15_network.node[10].content_store 	decision_no[10] 	42390
scalar tree_4_3_u09_r15_network.node[10].content_store 	decision_ratio[10] 	0.010065154947339
scalar tree_4_3_u09_r15_network.node[11].core_layer 	interests[11] 	27123
scalar tree_4_3_u09_r15_network.node[11].core_layer 	data[11] 	25874
scalar tree_4_3_u09_r15_network.node[11].content_store 	p_hit[11] 	0.046012609224643
scalar tree_4_3_u09_r15_network.node[11].content_store 	hits[11] 	1248
scalar tree_4_3_u09_r15_network.node[11].content_store 	misses[11] 	25875
scalar tree_4_3_u09_r15_network.node[11].content_store 	decision_yes[11] 	266
scalar tree_4_3_u09_r15_network.node[11].content_store 	decision_no[11] 	25608
scalar tree_4_3_u09_r15_network.node[11].content_store 	decision_ratio[11] 	0.010280590554224
scalar tree_4_3_u09_r15_network.node[12].core_layer 	interests[12] 	9046
scalar tree_4_3_u09_r15_network.node[12].core_layer 	data[12] 	8613
scalar tree_4_3_u09_r15_network.node[12].content_store 	p_hit[12] 	0.047866460313951
scalar tree_4_3_u09_r15_network.node[12].content_store 	hits[12] 	433
scalar tree_4_3_u09_r15_network.node[12].content_store 	misses[12] 	8613
scalar tree_4_3_u09_r15_network.node[12].content_store 	decision_yes[12] 	89
scalar tree_4_3_u09_r15_network.node[12].content_store 	decision_no[12] 	8524
scalar tree_4_3_u09_r15_network.node[12].content_store 	decision_ratio[12] 	0.010333217229769
scalar tree_4_3_u09_r15_network.node[13].core_layer 	interests[13] 	12053
scalar tree_4_3_u09_r15_network.node[13].core_layer 	data[13] 	9164
scalar tree_4_3_u09_r15_network.node[13].content_store 	p_hit[13] 	0.2396913631461
scalar tree_4_3_u09_r15_network.node[13].content_store 	hits[13] 	2889
scalar tree_4_3_u09_r15_network.node[13].content_store 	misses[13] 	9164
scalar tree_4_3_u09_r15_network.node[13].content_store 	decision_yes[13] 	87
scalar tree_4_3_u09_r15_network.node[13].content_store 	decision_no[13] 	9077
scalar tree_4_3_u09_r15_network.node[13].content_store 	decision_ratio[13] 	0.0094936708860759
scalar tree_4_3_u09_r15_network.node[14].core_layer 	interests[14] 	12082
scalar tree_4_3_u09_r15_network.node[14].core_layer 	data[14] 	9172
scalar tree_4_3_u09_r15_network.node[14].content_store 	p_hit[14] 	0.24085416321801
scalar tree_4_3_u09_r15_network.node[14].content_store 	hits[14] 	2910
scalar tree_4_3_u09_r15_network.node[14].content_store 	misses[14] 	9172
scalar tree_4_3_u09_r15_network.node[14].content_store 	decision_yes[14] 	84
scalar tree_4_3_u09_r15_network.node[14].content_store 	decision_no[14] 	9088
scalar tree_4_3_u09_r15_network.node[14].content_store 	decision_ratio[14] 	0.0091583078935892
scalar tree_4_3_u09_r15_network.node[15].core_layer 	interests[15] 	11882
scalar tree_4_3_u09_r15_network.node[15].core_layer 	data[15] 	9085
scalar tree_4_3_u09_r15_network.node[15].content_store 	p_hit[15] 	0.23539808113112
scalar tree_4_3_u09_r15_network.node[15].content_store 	hits[15] 	2797
scalar tree_4_3_u09_r15_network.node[15].content_store 	misses[15] 	9085
scalar tree_4_3_u09_r15_network.node[15].content_store 	decision_yes[15] 	87
scalar tree_4_3_u09_r15_network.node[15].content_store 	decision_no[15] 	8998
scalar tree_4_3_u09_r15_network.node[15].content_store 	decision_ratio[15] 	0.0095762245459549
scalar tree_4_3_u09_r15_network.node[16].core_layer 	interests[16] 	11793
scalar tree_4_3_u09_r15_network.node[16].core_layer 	data[16] 	9012
scalar tree_4_3_u09_r15_network.node[16].content_store 	p_hit[16] 	0.23581785805139
scalar tree_4_3_u09_r15_network.node[16].content_store 	hits[16] 	2781
scalar tree_4_3_u09_r15_network.node[16].content_store 	misses[16] 	9012
scalar tree_4_3_u09_r15_network.node[16].content_store 	decision_yes[16] 	101
scalar tree_4_3_u09_r15_network.node[16].content_store 	decision_no[16] 	8911
scalar tree_4_3_u09_r15_network.node[16].content_store 	decision_ratio[16] 	0.011207279183311
scalar tree_4_3_u09_r15_network.node[17].core_layer 	interests[17] 	11995
scalar tree_4_3_u09_r15_network.node[17].core_layer 	data[17] 	9055
scalar tree_4_3_u09_r15_network.node[17].content_store 	p_hit[17] 	0.24510212588579
scalar tree_4_3_u09_r15_network.node[17].content_store 	hits[17] 	2940
scalar tree_4_3_u09_r15_network.node[17].content_store 	misses[17] 	9055
scalar tree_4_3_u09_r15_network.node[17].content_store 	decision_yes[17] 	80
scalar tree_4_3_u09_r15_network.node[17].content_store 	decision_no[17] 	8975
scalar tree_4_3_u09_r15_network.node[17].content_store 	decision_ratio[17] 	0.0088348978464937
scalar tree_4_3_u09_r15_network.node[18].core_layer 	interests[18] 	11930
scalar tree_4_3_u09_r15_network.node[18].core_layer 	data[18] 	9049
scalar tree_4_3_u09_r15_network.node[18].content_store 	p_hit[18] 	0.24140821458508
scalar tree_4_3_u09_r15_network.node[18].content_store 	hits[18] 	2880
scalar tree_4_3_u09_r15_network.node[18].content_store 	misses[18] 	9050
scalar tree_4_3_u09_r15_network.node[18].content_store 	decision_yes[18] 	92
scalar tree_4_3_u09_r15_network.node[18].content_store 	decision_no[18] 	8957
scalar tree_4_3_u09_r15_network.node[18].content_store 	decision_ratio[18] 	0.010166869267322
scalar tree_4_3_u09_r15_network.node[19].core_layer 	interests[19] 	11965
scalar tree_4_3_u09_r15_network.node[19].core_layer 	data[19] 	9183
scalar tree_4_3_u09_r15_network.node[19].content_store 	p_hit[19] 	0.23251149185123
scalar tree_4_3_u09_r15_network.node[19].content_store 	hits[19] 	2782
scalar tree_4_3_u09_r15_network.node[19].content_store 	misses[19] 	9183
scalar tree_4_3_u09_r15_network.node[19].content_store 	decision_yes[19] 	119
scalar tree_4_3_u09_r15_network.node[19].content_store 	decision_no[19] 	9064
scalar tree_4_3_u09_r15_network.node[19].content_store 	decision_ratio[19] 	0.012958728084504
scalar tree_4_3_u09_r15_network.node[20].core_layer 	interests[20] 	11903
scalar tree_4_3_u09_r15_network.node[20].core_layer 	data[20] 	8952
scalar tree_4_3_u09_r15_network.node[20].content_store 	p_hit[20] 	0.24792069226245
scalar tree_4_3_u09_r15_network.node[20].content_store 	hits[20] 	2951
scalar tree_4_3_u09_r15_network.node[20].content_store 	misses[20] 	8952
scalar tree_4_3_u09_r15_network.node[20].content_store 	decision_yes[20] 	81
scalar tree_4_3_u09_r15_network.node[20].content_store 	decision_no[20] 	8871
scalar tree_4_3_u09_r15_network.node[20].content_store 	decision_ratio[20] 	0.0090482573726542
scalar tree_4_3_u09_r15_network.node[21].core_layer 	interests[21] 	12097
scalar tree_4_3_u09_r15_network.node[21].core_layer 	data[21] 	9277
scalar tree_4_3_u09_r15_network.node[21].content_store 	p_hit[21] 	0.23311564850789
scalar tree_4_3_u09_r15_network.node[21].content_store 	hits[21] 	2820
scalar tree_4_3_u09_r15_network.node[21].content_store 	misses[21] 	9277
scalar tree_4_3_u09_r15_network.node[21].content_store 	decision_yes[21] 	76
scalar tree_4_3_u09_r15_network.node[21].content_store 	decision_no[21] 	9201
scalar tree_4_3_u09_r15_network.node[21].content_store 	decision_ratio[21] 	0.0081923035464051
scalar tree_4_3_u09_r15_network.node[22].core_layer 	interests[22] 	12083
scalar tree_4_3_u09_r15_network.node[22].core_layer 	data[22] 	9074
scalar tree_4_3_u09_r15_network.node[22].content_store 	p_hit[22] 	0.24902755938095
scalar tree_4_3_u09_r15_network.node[22].content_store 	hits[22] 	3009
scalar tree_4_3_u09_r15_network.node[22].content_store 	misses[22] 	9074
scalar tree_4_3_u09_r15_network.node[22].content_store 	decision_yes[22] 	95
scalar tree_4_3_u09_r15_network.node[22].content_store 	decision_no[22] 	8979
scalar tree_4_3_u09_r15_network.node[22].content_store 	decision_ratio[22] 	0.01046947322019
scalar tree_4_3_u09_r15_network.node[23].core_layer 	interests[23] 	12208
scalar tree_4_3_u09_r15_network.node[23].core_layer 	data[23] 	9197
scalar tree_4_3_u09_r15_network.node[23].content_store 	p_hit[23] 	0.24664154652687
scalar tree_4_3_u09_r15_network.node[23].content_store 	hits[23] 	3011
scalar tree_4_3_u09_r15_network.node[23].content_store 	misses[23] 	9197
scalar tree_4_3_u09_r15_network.node[23].content_store 	decision_yes[23] 	98
scalar tree_4_3_u09_r15_network.node[23].content_store 	decision_no[23] 	9099
scalar tree_4_3_u09_r15_network.node[23].content_store 	decision_ratio[23] 	0.010655648581059
scalar tree_4_3_u09_r15_network.node[24].core_layer 	interests[24] 	12093
scalar tree_4_3_u09_r15_network.node[24].core_layer 	data[24] 	9295
scalar tree_4_3_u09_r15_network.node[24].content_store 	p_hit[24] 	0.23129082940544
scalar tree_4_3_u09_r15_network.node[24].content_store 	hits[24] 	2797
scalar tree_4_3_u09_r15_network.node[24].content_store 	misses[24] 	9296
scalar tree_4_3_u09_r15_network.node[24].content_store 	decision_yes[24] 	93
scalar tree_4_3_u09_r15_network.node[24].content_store 	decision_no[24] 	9202
scalar tree_4_3_u09_r15_network.node[24].content_store 	decision_ratio[24] 	0.010005379236148
scalar tree_4_3_u09_r15_network.node[25].core_layer 	interests[25] 	11998
scalar tree_4_3_u09_r15_network.node[25].core_layer 	data[25] 	9265
scalar tree_4_3_u09_r15_network.node[25].content_store 	p_hit[25] 	0.22770461743624
scalar tree_4_3_u09_r15_network.node[25].content_store 	hits[25] 	2732
scalar tree_4_3_u09_r15_network.node[25].content_store 	misses[25] 	9266
scalar tree_4_3_u09_r15_network.node[25].content_store 	decision_yes[25] 	70
scalar tree_4_3_u09_r15_network.node[25].content_store 	decision_no[25] 	9195
scalar tree_4_3_u09_r15_network.node[25].content_store 	decision_ratio[25] 	0.0075553157042634
scalar tree_4_3_u09_r15_network.node[26].core_layer 	interests[26] 	12061
scalar tree_4_3_u09_r15_network.node[26].core_layer 	data[26] 	9088
scalar tree_4_3_u09_r15_network.node[26].content_store 	p_hit[26] 	0.24649697371694
scalar tree_4_3_u09_r15_network.node[26].content_store 	hits[26] 	2973
scalar tree_4_3_u09_r15_network.node[26].content_store 	misses[26] 	9088
scalar tree_4_3_u09_r15_network.node[26].content_store 	decision_yes[26] 	93
scalar tree_4_3_u09_r15_network.node[26].content_store 	decision_no[26] 	8995
scalar tree_4_3_u09_r15_network.node[26].content_store 	decision_ratio[26] 	0.010233274647887
scalar tree_4_3_u09_r15_network.node[27].core_layer 	interests[27] 	11928
scalar tree_4_3_u09_r15_network.node[27].core_layer 	data[27] 	9029
scalar tree_4_3_u09_r15_network.node[27].content_store 	p_hit[27] 	0.24304158283032
scalar tree_4_3_u09_r15_network.node[27].content_store 	hits[27] 	2899
scalar tree_4_3_u09_r15_network.node[27].content_store 	misses[27] 	9029
scalar tree_4_3_u09_r15_network.node[27].content_store 	decision_yes[27] 	79
scalar tree_4_3_u09_r15_network.node[27].content_store 	decision_no[27] 	8950
scalar tree_4_3_u09_r15_network.node[27].content_store 	decision_ratio[27] 	0.0087495846716137
scalar tree_4_3_u09_r15_network.node[28].core_layer 	interests[28] 	11983
scalar tree_4_3_u09_r15_network.node[28].core_layer 	data[28] 	9095
scalar tree_4_3_u09_r15_network.node[28].content_store 	p_hit[28] 	0.24109154635734
scalar tree_4_3_u09_r15_network.node[28].content_store 	hits[28] 	2889
scalar tree_4_3_u09_r15_network.node[28].content_store 	misses[28] 	9094
scalar tree_4_3_u09_r15_network.node[28].content_store 	decision_yes[28] 	80
scalar tree_4_3_u09_r15_network.node[28].content_store 	decision_no[28] 	9015
scalar tree_4_3_u09_r15_network.node[28].content_store 	decision_ratio[28] 	0.0087960417811985
scalar tree_4_3_u09_r15_network.node[29].core_layer 	interests[29] 	12149
scalar tree_4_3_u09_r15_network.node[29].core_layer 	data[29] 	9167
scalar tree_4_3_u09_r15_network.node[29].content_store 	p_hit[29] 	0.24545230060087
scalar tree_4_3_u09_r15_network.node[29].content_store 	hits[29] 	2982
scalar tree_4_3_u09_r15_network.node[29].content_store 	misses[29] 	9167
scalar tree_4_3_u09_r15_network.node[29].content_store 	decision_yes[29] 	94
scalar tree_4_3_u09_r15_network.node[29].content_store 	decision_no[29] 	9073
scalar tree_4_3_u09_r15_network.node[29].content_store 	decision_ratio[29] 	0.010254172575543
scalar tree_4_3_u09_r15_network.node[30].core_layer 	interests[30] 	11977
scalar tree_4_3_u09_r15_network.node[30].core_layer 	data[30] 	8982
scalar tree_4_3_u09_r15_network.node[30].content_store 	p_hit[30] 	0.25006262002171
scalar tree_4_3_u09_r15_network.node[30].content_store 	hits[30] 	2995
scalar tree_4_3_u09_r15_network.node[30].content_store 	misses[30] 	8982
scalar tree_4_3_u09_r15_network.node[30].content_store 	decision_yes[30] 	99
scalar tree_4_3_u09_r15_network.node[30].content_store 	decision_no[30] 	8883
scalar tree_4_3_u09_r15_network.node[30].content_store 	decision_ratio[30] 	0.011022044088176
scalar tree_4_3_u09_r15_network.node[31].core_layer 	interests[31] 	12131
scalar tree_4_3_u09_r15_network.node[31].core_layer 	data[31] 	9269
scalar tree_4_3_u09_r15_network.node[31].content_store 	p_hit[31] 	0.23592449097354
scalar tree_4_3_u09_r15_network.node[31].content_store 	hits[31] 	2862
scalar tree_4_3_u09_r15_network.node[31].content_store 	misses[31] 	9269
scalar tree_4_3_u09_r15_network.node[31].content_store 	decision_yes[31] 	104
scalar tree_4_3_u09_r15_network.node[31].content_store 	decision_no[31] 	9165
scalar tree_4_3_u09_r15_network.node[31].content_store 	decision_ratio[31] 	0.011220196353436
scalar tree_4_3_u09_r15_network.node[32].core_layer 	interests[32] 	11839
scalar tree_4_3_u09_r15_network.node[32].core_layer 	data[32] 	9060
scalar tree_4_3_u09_r15_network.node[32].content_store 	p_hit[32] 	0.23473266323169
scalar tree_4_3_u09_r15_network.node[32].content_store 	hits[32] 	2779
scalar tree_4_3_u09_r15_network.node[32].content_store 	misses[32] 	9060
scalar tree_4_3_u09_r15_network.node[32].content_store 	decision_yes[32] 	88
scalar tree_4_3_u09_r15_network.node[32].content_store 	decision_no[32] 	8972
scalar tree_4_3_u09_r15_network.node[32].content_store 	decision_ratio[32] 	0.0097130242825607
scalar tree_4_3_u09_r15_network.node[33].core_layer 	interests[33] 	11946
scalar tree_4_3_u09_r15_network.node[33].core_layer 	data[33] 	9119
scalar tree_4_3_u09_r15_network.node[33].content_store 	p_hit[33] 	0.23664825046041
scalar tree_4_3_u09_r15_network.node[33].content_store 	hits[33] 	2827
scalar tree_4_3_u09_r15_network.node[33].content_store 	misses[33] 	9119
scalar tree_4_3_u09_r15_network.node[33].content_store 	decision_yes[33] 	86
scalar tree_4_3_u09_r15_network.node[33].content_store 	decision_no[33] 	9033
scalar tree_4_3_u09_r15_network.node[33].content_store 	decision_ratio[33] 	0.0094308586467814
scalar tree_4_3_u09_r15_network.node[34].core_layer 	interests[34] 	11952
scalar tree_4_3_u09_r15_network.node[34].core_layer 	data[34] 	9011
scalar tree_4_3_u09_r15_network.node[34].content_store 	p_hit[34] 	0.24598393574297
scalar tree_4_3_u09_r15_network.node[34].content_store 	hits[34] 	2940
scalar tree_4_3_u09_r15_network.node[34].content_store 	misses[34] 	9012
scalar tree_4_3_u09_r15_network.node[34].content_store 	decision_yes[34] 	104
scalar tree_4_3_u09_r15_network.node[34].content_store 	decision_no[34] 	8907
scalar tree_4_3_u09_r15_network.node[34].content_store 	decision_ratio[34] 	0.011541449339696
scalar tree_4_3_u09_r15_network.node[35].core_layer 	interests[35] 	12028
scalar tree_4_3_u09_r15_network.node[35].core_layer 	data[35] 	8920
scalar tree_4_3_u09_r15_network.node[35].content_store 	p_hit[35] 	0.25839707349518
scalar tree_4_3_u09_r15_network.node[35].content_store 	hits[35] 	3108
scalar tree_4_3_u09_r15_network.node[35].content_store 	misses[35] 	8920
scalar tree_4_3_u09_r15_network.node[35].content_store 	decision_yes[35] 	74
scalar tree_4_3_u09_r15_network.node[35].content_store 	decision_no[35] 	8846
scalar tree_4_3_u09_r15_network.node[35].content_store 	decision_ratio[35] 	0.0082959641255605
scalar tree_4_3_u09_r15_network.node[36].core_layer 	interests[36] 	12119
scalar tree_4_3_u09_r15_network.node[36].core_layer 	data[36] 	9253
scalar tree_4_3_u09_r15_network.node[36].content_store 	p_hit[36] 	0.23640564403004
scalar tree_4_3_u09_r15_network.node[36].content_store 	hits[36] 	2865
scalar tree_4_3_u09_r15_network.node[36].content_store 	misses[36] 	9254
scalar tree_4_3_u09_r15_network.node[36].content_store 	decision_yes[36] 	91
scalar tree_4_3_u09_r15_network.node[36].content_store 	decision_no[36] 	9162
scalar tree_4_3_u09_r15_network.node[36].content_store 	decision_ratio[36] 	0.0098346482221982
scalar tree_4_3_u09_r15_network.node[37].core_layer 	interests[37] 	11751
scalar tree_4_3_u09_r15_network.node[37].core_layer 	data[37] 	8964
scalar tree_4_3_u09_r15_network.node[37].content_store 	p_hit[37] 	0.23717130456982
scalar tree_4_3_u09_r15_network.node[37].content_store 	hits[37] 	2787
scalar tree_4_3_u09_r15_network.node[37].content_store 	misses[37] 	8964
scalar tree_4_3_u09_r15_network.node[37].content_store 	decision_yes[37] 	102
scalar tree_4_3_u09_r15_network.node[37].content_store 	decision_no[37] 	8862
scalar tree_4_3_u09_r15_network.node[37].content_store 	decision_ratio[37] 	0.011378848728246
scalar tree_4_3_u09_r15_network.node[38].core_layer 	interests[38] 	11918
scalar tree_4_3_u09_r15_network.node[38].core_layer 	data[38] 	8949
scalar tree_4_3_u09_r15_network.node[38].content_store 	p_hit[38] 	0.24903507299883
scalar tree_4_3_u09_r15_network.node[38].content_store 	hits[38] 	2968
scalar tree_4_3_u09_r15_network.node[38].content_store 	misses[38] 	8950
scalar tree_4_3_u09_r15_network.node[38].content_store 	decision_yes[38] 	97
scalar tree_4_3_u09_r15_network.node[38].content_store 	decision_no[38] 	8852
scalar tree_4_3_u09_r15_network.node[38].content_store 	decision_ratio[38] 	0.010839199910605
scalar tree_4_3_u09_r15_network.node[39].core_layer 	interests[39] 	12005
scalar tree_4_3_u09_r15_network.node[39].core_layer 	data[39] 	9046
scalar tree_4_3_u09_r15_network.node[39].content_store 	p_hit[39] 	0.24648063306955
scalar tree_4_3_u09_r15_network.node[39].content_store 	hits[39] 	2959
scalar tree_4_3_u09_r15_network.node[39].content_store 	misses[39] 	9046
scalar tree_4_3_u09_r15_network.node[39].content_store 	decision_yes[39] 	93
scalar tree_4_3_u09_r15_network.node[39].content_store 	decision_no[39] 	8953
scalar tree_4_3_u09_r15_network.node[39].content_store 	decision_ratio[39] 	0.010280787088216
scalar tree_4_3_u09_r15_network.client[13] 	hdistance[13] 	2.8620260516054
scalar tree_4_3_u09_r15_network.client[13] 	downloads[13] 	12053
scalar tree_4_3_u09_r15_network.client[13] 	avg_time[13] 	0.00435658873
scalar tree_4_3_u09_r15_network.client[14] 	hdistance[14] 	2.8564807151134
scalar tree_4_3_u09_r15_network.client[14] 	downloads[14] 	12082
scalar tree_4_3_u09_r15_network.client[14] 	avg_time[14] 	0.00434199332
scalar tree_4_3_u09_r15_network.client[15] 	hdistance[15] 	2.8946305335802
scalar tree_4_3_u09_r15_network.client[15] 	downloads[15] 	11882
scalar tree_4_3_u09_r15_network.client[15] 	avg_time[15] 	0.004400239356
scalar tree_4_3_u09_r15_network.client[16] 	hdistance[16] 	2.8590689392012
scalar tree_4_3_u09_r15_network.client[16] 	downloads[16] 	11793
scalar tree_4_3_u09_r15_network.client[16] 	avg_time[16] 	0.004349865624
scalar tree_4_3_u09_r15_network.client[17] 	hdistance[17] 	2.8471029595665
scalar tree_4_3_u09_r15_network.client[17] 	downloads[17] 	11995
scalar tree_4_3_u09_r15_network.client[17] 	avg_time[17] 	0.004330272545
scalar tree_4_3_u09_r15_network.client[18] 	hdistance[18] 	2.8711543297846
scalar tree_4_3_u09_r15_network.client[18] 	downloads[18] 	11929
scalar tree_4_3_u09_r15_network.client[18] 	avg_time[18] 	0.004366002118
scalar tree_4_3_u09_r15_network.client[19] 	hdistance[19] 	2.8737985791893
scalar tree_4_3_u09_r15_network.client[19] 	downloads[19] 	11965
scalar tree_4_3_u09_r15_network.client[19] 	avg_time[19] 	0.004374923876
scalar tree_4_3_u09_r15_network.client[20] 	hdistance[20] 	2.8541544148534
scalar tree_4_3_u09_r15_network.client[20] 	downloads[20] 	11903
scalar tree_4_3_u09_r15_network.client[20] 	avg_time[20] 	0.00433907118
scalar tree_4_3_u09_r15_network.client[21] 	hdistance[21] 	2.8644291973217
scalar tree_4_3_u09_r15_network.client[21] 	downloads[21] 	12097
scalar tree_4_3_u09_r15_network.client[21] 	avg_time[21] 	0.004361078258
scalar tree_4_3_u09_r15_network.client[22] 	hdistance[22] 	2.8415956302243
scalar tree_4_3_u09_r15_network.client[22] 	downloads[22] 	12083
scalar tree_4_3_u09_r15_network.client[22] 	avg_time[22] 	0.004320612731
scalar tree_4_3_u09_r15_network.client[23] 	hdistance[23] 	2.8549311926606
scalar tree_4_3_u09_r15_network.client[23] 	downloads[23] 	12208
scalar tree_4_3_u09_r15_network.client[23] 	avg_time[23] 	0.004340370579
scalar tree_4_3_u09_r15_network.client[24] 	hdistance[24] 	2.8793417135296
scalar tree_4_3_u09_r15_network.client[24] 	downloads[24] 	12092
scalar tree_4_3_u09_r15_network.client[24] 	avg_time[24] 	0.004385549973
scalar tree_4_3_u09_r15_network.client[25] 	hdistance[25] 	2.9038926398266
scalar tree_4_3_u09_r15_network.client[25] 	downloads[25] 	11997
scalar tree_4_3_u09_r15_network.client[25] 	avg_time[25] 	0.004420435461
scalar tree_4_3_u09_r15_network.client[26] 	hdistance[26] 	2.8362490672415
scalar tree_4_3_u09_r15_network.client[26] 	downloads[26] 	12061
scalar tree_4_3_u09_r15_network.client[26] 	avg_time[26] 	0.004310087389
scalar tree_4_3_u09_r15_network.client[27] 	hdistance[27] 	2.8396210596915
scalar tree_4_3_u09_r15_network.client[27] 	downloads[27] 	11928
scalar tree_4_3_u09_r15_network.client[27] 	avg_time[27] 	0.004320251885
scalar tree_4_3_u09_r15_network.client[28] 	hdistance[28] 	2.8650700934579
scalar tree_4_3_u09_r15_network.client[28] 	downloads[28] 	11984
scalar tree_4_3_u09_r15_network.client[28] 	avg_time[28] 	0.004358448334
scalar tree_4_3_u09_r15_network.client[29] 	hdistance[29] 	2.8234422586221
scalar tree_4_3_u09_r15_network.client[29] 	downloads[29] 	12149
scalar tree_4_3_u09_r15_network.client[29] 	avg_time[29] 	0.004297913874
scalar tree_4_3_u09_r15_network.client[30] 	hdistance[30] 	2.846956666945
scalar tree_4_3_u09_r15_network.client[30] 	downloads[30] 	11977
scalar tree_4_3_u09_r15_network.client[30] 	avg_time[30] 	0.004331397232
scalar tree_4_3_u09_r15_network.client[31] 	hdistance[31] 	2.8557414887478
scalar tree_4_3_u09_r15_network.client[31] 	downloads[31] 	12131
scalar tree_4_3_u09_r15_network.client[31] 	avg_time[31] 	0.004346217399
scalar tree_4_3_u09_r15_network.client[32] 	hdistance[32] 	2.887997297069
scalar tree_4_3_u09_r15_network.client[32] 	downloads[32] 	11839
scalar tree_4_3_u09_r15_network.client[32] 	avg_time[32] 	0.0043963143
scalar tree_4_3_u09_r15_network.client[33] 	hdistance[33] 	2.8528377699649
scalar tree_4_3_u09_r15_network.client[33] 	downloads[33] 	11946
scalar tree_4_3_u09_r15_network.client[33] 	avg_time[33] 	0.004343710344
scalar tree_4_3_u09_r15_network.client[34] 	hdistance[34] 	2.8664546899841
scalar tree_4_3_u09_r15_network.client[34] 	downloads[34] 	11951
scalar tree_4_3_u09_r15_network.client[34] 	avg_time[34] 	0.004354683072
scalar tree_4_3_u09_r15_network.client[35] 	hdistance[35] 	2.8419521117393
scalar tree_4_3_u09_r15_network.client[35] 	downloads[35] 	12028
scalar tree_4_3_u09_r15_network.client[35] 	avg_time[35] 	0.004315261358
scalar tree_4_3_u09_r15_network.client[36] 	hdistance[36] 	2.8689552731474
scalar tree_4_3_u09_r15_network.client[36] 	downloads[36] 	12118
scalar tree_4_3_u09_r15_network.client[36] 	avg_time[36] 	0.004360619049
scalar tree_4_3_u09_r15_network.client[37] 	hdistance[37] 	2.8586503276317
scalar tree_4_3_u09_r15_network.client[37] 	downloads[37] 	11751
scalar tree_4_3_u09_r15_network.client[37] 	avg_time[37] 	0.004349754519
scalar tree_4_3_u09_r15_network.client[38] 	hdistance[38] 	2.8463539481413
scalar tree_4_3_u09_r15_network.client[38] 	downloads[38] 	11917
scalar tree_4_3_u09_r15_network.client[38] 	avg_time[38] 	0.004324948491
scalar tree_4_3_u09_r15_network.client[39] 	hdistance[39] 	2.8344023323615
scalar tree_4_3_u09_r15_network.client[39] 	downloads[39] 	12005
scalar tree_4_3_u09_r15_network.client[39] 	avg_time[39] 	0.004317364755
