version 2
run General-65-20160819-07:50:02-13837
attr a 0.9
attr cd fix0.1
attr configname General
attr cr lru
attr datetime 20160819-07:50:02
attr experiment General
attr fsize 1
attr inifile hw5115/scenario_A/NRR-FIX0.1.ini
attr iterationvars "$name=tree_4_3, $un=03, $rep=6, $cd=fix0.1, $cr=lru, $fsize=1, $a=0.9, $sl=nrr, $ttl=1000, $variance=0.05"
attr iterationvars2 "$name=tree_4_3, $un=03, $rep=6, $cd=fix0.1, $cr=lru, $fsize=1, $a=0.9, $sl=nrr, $ttl=1000, $variance=0.05, $repetition=0"
attr measurement "$name=tree_4_3, $un=03, $rep=6, $cd=fix0.1, $cr=lru, $fsize=1, $a=0.9, $sl=nrr, $ttl=1000, $variance=0.05"
attr name tree_4_3
attr network networks.${name}_u${un}_r${rep}_network
attr processid 13837
attr rep 6
attr repetition 0
attr replication #0
attr resultdir results
attr runnumber 65
attr seedset 6
attr sl nrr
attr ttl 1000
attr un 03
attr variance 0.05

scalar . 	a 	0.9
scalar . 	fsize 	1
scalar . 	rep 	6
scalar . 	ttl 	1000
scalar . 	un 	03
scalar . 	variance 	0.05
scalar tree_4_3_u03_r6_network.content_distribution 	repo-0 	0
scalar tree_4_3_u03_r6_network.content_distribution 	client-0 	13
scalar tree_4_3_u03_r6_network.content_distribution 	client-1 	14
scalar tree_4_3_u03_r6_network.content_distribution 	client-2 	15
scalar tree_4_3_u03_r6_network.content_distribution 	client-3 	16
scalar tree_4_3_u03_r6_network.content_distribution 	client-4 	17
scalar tree_4_3_u03_r6_network.content_distribution 	client-5 	18
scalar tree_4_3_u03_r6_network.content_distribution 	client-6 	19
scalar tree_4_3_u03_r6_network.content_distribution 	client-7 	20
scalar tree_4_3_u03_r6_network.content_distribution 	client-8 	21
scalar tree_4_3_u03_r6_network.content_distribution 	client-9 	22
scalar tree_4_3_u03_r6_network.content_distribution 	client-10 	23
scalar tree_4_3_u03_r6_network.content_distribution 	client-11 	24
scalar tree_4_3_u03_r6_network.content_distribution 	client-12 	25
scalar tree_4_3_u03_r6_network.content_distribution 	client-13 	26
scalar tree_4_3_u03_r6_network.content_distribution 	client-14 	27
scalar tree_4_3_u03_r6_network.content_distribution 	client-15 	28
scalar tree_4_3_u03_r6_network.content_distribution 	client-16 	29
scalar tree_4_3_u03_r6_network.content_distribution 	client-17 	30
scalar tree_4_3_u03_r6_network.content_distribution 	client-18 	31
scalar tree_4_3_u03_r6_network.content_distribution 	client-19 	32
scalar tree_4_3_u03_r6_network.content_distribution 	client-20 	33
scalar tree_4_3_u03_r6_network.content_distribution 	client-21 	34
scalar tree_4_3_u03_r6_network.content_distribution 	client-22 	35
scalar tree_4_3_u03_r6_network.content_distribution 	client-23 	36
scalar tree_4_3_u03_r6_network.content_distribution 	client-24 	37
scalar tree_4_3_u03_r6_network.content_distribution 	client-25 	38
scalar tree_4_3_u03_r6_network.content_distribution 	client-26 	39
scalar tree_4_3_u03_r6_network.content_distribution 	repo-0_card 	100000
scalar tree_4_3_u03_r6_network.content_distribution 	repo-0_price 	0
scalar tree_4_3_u03_r6_network.statistics 	stabilization_time 	658.4
scalar tree_4_3_u03_r6_network.statistics 	p_hit 	0.20891330723301
scalar tree_4_3_u03_r6_network.statistics 	interests 	26512.225
scalar tree_4_3_u03_r6_network.statistics 	data 	18387.55
scalar tree_4_3_u03_r6_network.statistics 	hdistance 	2.8741114169504
scalar tree_4_3_u03_r6_network.statistics 	avg_time 	0.00452628098
scalar tree_4_3_u03_r6_network.statistics 	downloads 	324987
scalar tree_4_3_u03_r6_network.statistics 	total_cost 	0
scalar tree_4_3_u03_r6_network.statistics 	total_replicas 	100000
scalar tree_4_3_u03_r6_network.statistics 	inner_hit 	0.38900017539163
scalar tree_4_3_u03_r6_network.node[0].core_layer 	interests[0] 	200045
scalar tree_4_3_u03_r6_network.node[0].core_layer 	repo_load[0] 	198567
scalar tree_4_3_u03_r6_network.node[0].core_layer 	data[0] 	0
scalar tree_4_3_u03_r6_network.node[0].core_layer 	repo_int[0] 	198567
scalar tree_4_3_u03_r6_network.node[0].content_store 	p_hit[0] 	0.0073883376240346
scalar tree_4_3_u03_r6_network.node[0].content_store 	hits[0] 	1478
scalar tree_4_3_u03_r6_network.node[0].content_store 	misses[0] 	198567
scalar tree_4_3_u03_r6_network.node[0].content_store 	decision_yes[0] 	19826
scalar tree_4_3_u03_r6_network.node[0].content_store 	decision_no[0] 	178741
scalar tree_4_3_u03_r6_network.node[0].content_store 	decision_ratio[0] 	0.099845392235366
scalar tree_4_3_u03_r6_network.node[1].core_layer 	interests[1] 	71448
scalar tree_4_3_u03_r6_network.node[1].core_layer 	data[1] 	70685
scalar tree_4_3_u03_r6_network.node[1].content_store 	p_hit[1] 	0.010665099093047
scalar tree_4_3_u03_r6_network.node[1].content_store 	hits[1] 	762
scalar tree_4_3_u03_r6_network.node[1].content_store 	misses[1] 	70686
scalar tree_4_3_u03_r6_network.node[1].content_store 	decision_yes[1] 	7056
scalar tree_4_3_u03_r6_network.node[1].content_store 	decision_no[1] 	63628
scalar tree_4_3_u03_r6_network.node[1].content_store 	decision_ratio[1] 	0.09982457133156
scalar tree_4_3_u03_r6_network.node[2].core_layer 	interests[2] 	74101
scalar tree_4_3_u03_r6_network.node[2].core_layer 	data[2] 	73231
scalar tree_4_3_u03_r6_network.node[2].content_store 	p_hit[2] 	0.011740732243829
scalar tree_4_3_u03_r6_network.node[2].content_store 	hits[2] 	870
scalar tree_4_3_u03_r6_network.node[2].content_store 	misses[2] 	73231
scalar tree_4_3_u03_r6_network.node[2].content_store 	decision_yes[2] 	7368
scalar tree_4_3_u03_r6_network.node[2].content_store 	decision_no[2] 	65863
scalar tree_4_3_u03_r6_network.node[2].content_store 	decision_ratio[2] 	0.10061312831997
scalar tree_4_3_u03_r6_network.node[3].core_layer 	interests[3] 	77829
scalar tree_4_3_u03_r6_network.node[3].core_layer 	data[3] 	76331
scalar tree_4_3_u03_r6_network.node[3].content_store 	p_hit[3] 	0.019247324262164
scalar tree_4_3_u03_r6_network.node[3].content_store 	hits[3] 	1498
scalar tree_4_3_u03_r6_network.node[3].content_store 	misses[3] 	76331
scalar tree_4_3_u03_r6_network.node[3].content_store 	decision_yes[3] 	7694
scalar tree_4_3_u03_r6_network.node[3].content_store 	decision_no[3] 	68634
scalar tree_4_3_u03_r6_network.node[3].content_store 	decision_ratio[3] 	0.10080180274604
scalar tree_4_3_u03_r6_network.node[4].core_layer 	interests[4] 	37340
scalar tree_4_3_u03_r6_network.node[4].core_layer 	data[4] 	35802
scalar tree_4_3_u03_r6_network.node[4].content_store 	p_hit[4] 	0.041162292447777
scalar tree_4_3_u03_r6_network.node[4].content_store 	hits[4] 	1537
scalar tree_4_3_u03_r6_network.node[4].content_store 	misses[4] 	35803
scalar tree_4_3_u03_r6_network.node[4].content_store 	decision_yes[4] 	3642
scalar tree_4_3_u03_r6_network.node[4].content_store 	decision_no[4] 	32160
scalar tree_4_3_u03_r6_network.node[4].content_store 	decision_ratio[4] 	0.10172616054969
scalar tree_4_3_u03_r6_network.node[5].core_layer 	interests[5] 	20955
scalar tree_4_3_u03_r6_network.node[5].core_layer 	data[5] 	19124
scalar tree_4_3_u03_r6_network.node[5].content_store 	p_hit[5] 	0.087377714149368
scalar tree_4_3_u03_r6_network.node[5].content_store 	hits[5] 	1831
scalar tree_4_3_u03_r6_network.node[5].content_store 	misses[5] 	19124
scalar tree_4_3_u03_r6_network.node[5].content_store 	decision_yes[5] 	1949
scalar tree_4_3_u03_r6_network.node[5].content_store 	decision_no[5] 	17174
scalar tree_4_3_u03_r6_network.node[5].content_store 	decision_ratio[5] 	0.10191915494431
scalar tree_4_3_u03_r6_network.node[6].core_layer 	interests[6] 	36082
scalar tree_4_3_u03_r6_network.node[6].core_layer 	data[6] 	32141
scalar tree_4_3_u03_r6_network.node[6].content_store 	p_hit[6] 	0.10925115015797
scalar tree_4_3_u03_r6_network.node[6].content_store 	hits[6] 	3942
scalar tree_4_3_u03_r6_network.node[6].content_store 	misses[6] 	32140
scalar tree_4_3_u03_r6_network.node[6].content_store 	decision_yes[6] 	3289
scalar tree_4_3_u03_r6_network.node[6].content_store 	decision_no[6] 	28852
scalar tree_4_3_u03_r6_network.node[6].content_store 	decision_ratio[6] 	0.10233035686506
scalar tree_4_3_u03_r6_network.node[7].core_layer 	interests[7] 	39264
scalar tree_4_3_u03_r6_network.node[7].core_layer 	data[7] 	37607
scalar tree_4_3_u03_r6_network.node[7].content_store 	p_hit[7] 	0.042176039119804
scalar tree_4_3_u03_r6_network.node[7].content_store 	hits[7] 	1656
scalar tree_4_3_u03_r6_network.node[7].content_store 	misses[7] 	37608
scalar tree_4_3_u03_r6_network.node[7].content_store 	decision_yes[7] 	3721
scalar tree_4_3_u03_r6_network.node[7].content_store 	decision_no[7] 	33886
scalar tree_4_3_u03_r6_network.node[7].content_store 	decision_ratio[7] 	0.098944345467599
scalar tree_4_3_u03_r6_network.node[8].core_layer 	interests[8] 	29139
scalar tree_4_3_u03_r6_network.node[8].core_layer 	data[8] 	27459
scalar tree_4_3_u03_r6_network.node[8].content_store 	p_hit[8] 	0.057654689591269
scalar tree_4_3_u03_r6_network.node[8].content_store 	hits[8] 	1680
scalar tree_4_3_u03_r6_network.node[8].content_store 	misses[8] 	27459
scalar tree_4_3_u03_r6_network.node[8].content_store 	decision_yes[8] 	2668
scalar tree_4_3_u03_r6_network.node[8].content_store 	decision_no[8] 	24791
scalar tree_4_3_u03_r6_network.node[8].content_store 	decision_ratio[8] 	0.097163043082414
scalar tree_4_3_u03_r6_network.node[9].core_layer 	interests[9] 	21941
scalar tree_4_3_u03_r6_network.node[9].core_layer 	data[9] 	19416
scalar tree_4_3_u03_r6_network.node[9].content_store 	p_hit[9] 	0.1151269313158
scalar tree_4_3_u03_r6_network.node[9].content_store 	hits[9] 	2526
scalar tree_4_3_u03_r6_network.node[9].content_store 	misses[9] 	19415
scalar tree_4_3_u03_r6_network.node[9].content_store 	decision_yes[9] 	1912
scalar tree_4_3_u03_r6_network.node[9].content_store 	decision_no[9] 	17504
scalar tree_4_3_u03_r6_network.node[9].content_store 	decision_ratio[9] 	0.098475484136794
scalar tree_4_3_u03_r6_network.node[10].core_layer 	interests[10] 	40298
scalar tree_4_3_u03_r6_network.node[10].core_layer 	data[10] 	38125
scalar tree_4_3_u03_r6_network.node[10].content_store 	p_hit[10] 	0.05387364137178
scalar tree_4_3_u03_r6_network.node[10].content_store 	hits[10] 	2171
scalar tree_4_3_u03_r6_network.node[10].content_store 	misses[10] 	38127
scalar tree_4_3_u03_r6_network.node[10].content_store 	decision_yes[10] 	3690
scalar tree_4_3_u03_r6_network.node[10].content_store 	decision_no[10] 	34433
scalar tree_4_3_u03_r6_network.node[10].content_store 	decision_ratio[10] 	0.096791962857068
scalar tree_4_3_u03_r6_network.node[11].core_layer 	interests[11] 	20919
scalar tree_4_3_u03_r6_network.node[11].core_layer 	data[11] 	18534
scalar tree_4_3_u03_r6_network.node[11].content_store 	p_hit[11] 	0.11401118600316
scalar tree_4_3_u03_r6_network.node[11].content_store 	hits[11] 	2385
scalar tree_4_3_u03_r6_network.node[11].content_store 	misses[11] 	18534
scalar tree_4_3_u03_r6_network.node[11].content_store 	decision_yes[11] 	1843
scalar tree_4_3_u03_r6_network.node[11].content_store 	decision_no[11] 	16691
scalar tree_4_3_u03_r6_network.node[11].content_store 	decision_ratio[11] 	0.099438869105428
scalar tree_4_3_u03_r6_network.node[12].core_layer 	interests[12] 	31957
scalar tree_4_3_u03_r6_network.node[12].core_layer 	data[12] 	29352
scalar tree_4_3_u03_r6_network.node[12].content_store 	p_hit[12] 	0.081547078887255
scalar tree_4_3_u03_r6_network.node[12].content_store 	hits[12] 	2606
scalar tree_4_3_u03_r6_network.node[12].content_store 	misses[12] 	29351
scalar tree_4_3_u03_r6_network.node[12].content_store 	decision_yes[12] 	2930
scalar tree_4_3_u03_r6_network.node[12].content_store 	decision_no[12] 	26422
scalar tree_4_3_u03_r6_network.node[12].content_store 	decision_ratio[12] 	0.099822840010902
scalar tree_4_3_u03_r6_network.node[13].core_layer 	interests[13] 	12826
scalar tree_4_3_u03_r6_network.node[13].core_layer 	data[13] 	9547
scalar tree_4_3_u03_r6_network.node[13].content_store 	p_hit[13] 	0.25557461406518
scalar tree_4_3_u03_r6_network.node[13].content_store 	hits[13] 	3278
scalar tree_4_3_u03_r6_network.node[13].content_store 	misses[13] 	9548
scalar tree_4_3_u03_r6_network.node[13].content_store 	decision_yes[13] 	961
scalar tree_4_3_u03_r6_network.node[13].content_store 	decision_no[13] 	8586
scalar tree_4_3_u03_r6_network.node[13].content_store 	decision_ratio[13] 	0.10065989316016
scalar tree_4_3_u03_r6_network.node[14].core_layer 	interests[14] 	12931
scalar tree_4_3_u03_r6_network.node[14].core_layer 	data[14] 	9706
scalar tree_4_3_u03_r6_network.node[14].content_store 	p_hit[14] 	0.24940066506844
scalar tree_4_3_u03_r6_network.node[14].content_store 	hits[14] 	3225
scalar tree_4_3_u03_r6_network.node[14].content_store 	misses[14] 	9706
scalar tree_4_3_u03_r6_network.node[14].content_store 	decision_yes[14] 	966
scalar tree_4_3_u03_r6_network.node[14].content_store 	decision_no[14] 	8740
scalar tree_4_3_u03_r6_network.node[14].content_store 	decision_ratio[14] 	0.099526066350711
scalar tree_4_3_u03_r6_network.node[15].core_layer 	interests[15] 	14719
scalar tree_4_3_u03_r6_network.node[15].core_layer 	data[15] 	9565
scalar tree_4_3_u03_r6_network.node[15].content_store 	p_hit[15] 	0.35015965758543
scalar tree_4_3_u03_r6_network.node[15].content_store 	hits[15] 	5154
scalar tree_4_3_u03_r6_network.node[15].content_store 	misses[15] 	9565
scalar tree_4_3_u03_r6_network.node[15].content_store 	decision_yes[15] 	958
scalar tree_4_3_u03_r6_network.node[15].content_store 	decision_no[15] 	8607
scalar tree_4_3_u03_r6_network.node[15].content_store 	decision_ratio[15] 	0.10015682174595
scalar tree_4_3_u03_r6_network.node[16].core_layer 	interests[16] 	13703
scalar tree_4_3_u03_r6_network.node[16].core_layer 	data[16] 	9420
scalar tree_4_3_u03_r6_network.node[16].content_store 	p_hit[16] 	0.31248631686492
scalar tree_4_3_u03_r6_network.node[16].content_store 	hits[16] 	4282
scalar tree_4_3_u03_r6_network.node[16].content_store 	misses[16] 	9421
scalar tree_4_3_u03_r6_network.node[16].content_store 	decision_yes[16] 	938
scalar tree_4_3_u03_r6_network.node[16].content_store 	decision_no[16] 	8482
scalar tree_4_3_u03_r6_network.node[16].content_store 	decision_ratio[16] 	0.099575371549894
scalar tree_4_3_u03_r6_network.node[17].core_layer 	interests[17] 	12783
scalar tree_4_3_u03_r6_network.node[17].core_layer 	data[17] 	9590
scalar tree_4_3_u03_r6_network.node[17].content_store 	p_hit[17] 	0.24970664163342
scalar tree_4_3_u03_r6_network.node[17].content_store 	hits[17] 	3192
scalar tree_4_3_u03_r6_network.node[17].content_store 	misses[17] 	9591
scalar tree_4_3_u03_r6_network.node[17].content_store 	decision_yes[17] 	980
scalar tree_4_3_u03_r6_network.node[17].content_store 	decision_no[17] 	8610
scalar tree_4_3_u03_r6_network.node[17].content_store 	decision_ratio[17] 	0.1021897810219
scalar tree_4_3_u03_r6_network.node[18].core_layer 	interests[18] 	12718
scalar tree_4_3_u03_r6_network.node[18].core_layer 	data[18] 	9489
scalar tree_4_3_u03_r6_network.node[18].content_store 	p_hit[18] 	0.25389212140274
scalar tree_4_3_u03_r6_network.node[18].content_store 	hits[18] 	3229
scalar tree_4_3_u03_r6_network.node[18].content_store 	misses[18] 	9489
scalar tree_4_3_u03_r6_network.node[18].content_store 	decision_yes[18] 	928
scalar tree_4_3_u03_r6_network.node[18].content_store 	decision_no[18] 	8561
scalar tree_4_3_u03_r6_network.node[18].content_store 	decision_ratio[18] 	0.097797449678575
scalar tree_4_3_u03_r6_network.node[19].core_layer 	interests[19] 	13705
scalar tree_4_3_u03_r6_network.node[19].core_layer 	data[19] 	9577
scalar tree_4_3_u03_r6_network.node[19].content_store 	p_hit[19] 	0.30120394016782
scalar tree_4_3_u03_r6_network.node[19].content_store 	hits[19] 	4128
scalar tree_4_3_u03_r6_network.node[19].content_store 	misses[19] 	9577
scalar tree_4_3_u03_r6_network.node[19].content_store 	decision_yes[19] 	978
scalar tree_4_3_u03_r6_network.node[19].content_store 	decision_no[19] 	8599
scalar tree_4_3_u03_r6_network.node[19].content_store 	decision_ratio[19] 	0.10211966168946
scalar tree_4_3_u03_r6_network.node[20].core_layer 	interests[20] 	13503
scalar tree_4_3_u03_r6_network.node[20].core_layer 	data[20] 	9399
scalar tree_4_3_u03_r6_network.node[20].content_store 	p_hit[20] 	0.30400651707028
scalar tree_4_3_u03_r6_network.node[20].content_store 	hits[20] 	4105
scalar tree_4_3_u03_r6_network.node[20].content_store 	misses[20] 	9398
scalar tree_4_3_u03_r6_network.node[20].content_store 	decision_yes[20] 	943
scalar tree_4_3_u03_r6_network.node[20].content_store 	decision_no[20] 	8456
scalar tree_4_3_u03_r6_network.node[20].content_store 	decision_ratio[20] 	0.10032982232152
scalar tree_4_3_u03_r6_network.node[21].core_layer 	interests[21] 	13802
scalar tree_4_3_u03_r6_network.node[21].core_layer 	data[21] 	9788
scalar tree_4_3_u03_r6_network.node[21].content_store 	p_hit[21] 	0.29082741631648
scalar tree_4_3_u03_r6_network.node[21].content_store 	hits[21] 	4014
scalar tree_4_3_u03_r6_network.node[21].content_store 	misses[21] 	9788
scalar tree_4_3_u03_r6_network.node[21].content_store 	decision_yes[21] 	969
scalar tree_4_3_u03_r6_network.node[21].content_store 	decision_no[21] 	8819
scalar tree_4_3_u03_r6_network.node[21].content_store 	decision_ratio[21] 	0.098998774008991
scalar tree_4_3_u03_r6_network.node[22].core_layer 	interests[22] 	13124
scalar tree_4_3_u03_r6_network.node[22].core_layer 	data[22] 	9725
scalar tree_4_3_u03_r6_network.node[22].content_store 	p_hit[22] 	0.25906735751295
scalar tree_4_3_u03_r6_network.node[22].content_store 	hits[22] 	3400
scalar tree_4_3_u03_r6_network.node[22].content_store 	misses[22] 	9724
scalar tree_4_3_u03_r6_network.node[22].content_store 	decision_yes[22] 	983
scalar tree_4_3_u03_r6_network.node[22].content_store 	decision_no[22] 	8742
scalar tree_4_3_u03_r6_network.node[22].content_store 	decision_ratio[22] 	0.10107969151671
scalar tree_4_3_u03_r6_network.node[23].core_layer 	interests[23] 	13428
scalar tree_4_3_u03_r6_network.node[23].core_layer 	data[23] 	9745
scalar tree_4_3_u03_r6_network.node[23].content_store 	p_hit[23] 	0.27427762883527
scalar tree_4_3_u03_r6_network.node[23].content_store 	hits[23] 	3683
scalar tree_4_3_u03_r6_network.node[23].content_store 	misses[23] 	9745
scalar tree_4_3_u03_r6_network.node[23].content_store 	decision_yes[23] 	952
scalar tree_4_3_u03_r6_network.node[23].content_store 	decision_no[23] 	8793
scalar tree_4_3_u03_r6_network.node[23].content_store 	decision_ratio[23] 	0.097691123653155
scalar tree_4_3_u03_r6_network.node[24].core_layer 	interests[24] 	13196
scalar tree_4_3_u03_r6_network.node[24].core_layer 	data[24] 	9561
scalar tree_4_3_u03_r6_network.node[24].content_store 	p_hit[24] 	0.2754622612913
scalar tree_4_3_u03_r6_network.node[24].content_store 	hits[24] 	3635
scalar tree_4_3_u03_r6_network.node[24].content_store 	misses[24] 	9561
scalar tree_4_3_u03_r6_network.node[24].content_store 	decision_yes[24] 	953
scalar tree_4_3_u03_r6_network.node[24].content_store 	decision_no[24] 	8608
scalar tree_4_3_u03_r6_network.node[24].content_store 	decision_ratio[24] 	0.09967576613325
scalar tree_4_3_u03_r6_network.node[25].core_layer 	interests[25] 	13727
scalar tree_4_3_u03_r6_network.node[25].core_layer 	data[25] 	9254
scalar tree_4_3_u03_r6_network.node[25].content_store 	p_hit[25] 	0.32585415604284
scalar tree_4_3_u03_r6_network.node[25].content_store 	hits[25] 	4473
scalar tree_4_3_u03_r6_network.node[25].content_store 	misses[25] 	9254
scalar tree_4_3_u03_r6_network.node[25].content_store 	decision_yes[25] 	891
scalar tree_4_3_u03_r6_network.node[25].content_store 	decision_no[25] 	8363
scalar tree_4_3_u03_r6_network.node[25].content_store 	decision_ratio[25] 	0.096282688567106
scalar tree_4_3_u03_r6_network.node[26].core_layer 	interests[26] 	12805
scalar tree_4_3_u03_r6_network.node[26].core_layer 	data[26] 	9473
scalar tree_4_3_u03_r6_network.node[26].content_store 	p_hit[26] 	0.26021085513471
scalar tree_4_3_u03_r6_network.node[26].content_store 	hits[26] 	3332
scalar tree_4_3_u03_r6_network.node[26].content_store 	misses[26] 	9473
scalar tree_4_3_u03_r6_network.node[26].content_store 	decision_yes[26] 	909
scalar tree_4_3_u03_r6_network.node[26].content_store 	decision_no[26] 	8564
scalar tree_4_3_u03_r6_network.node[26].content_store 	decision_ratio[26] 	0.095956930222738
scalar tree_4_3_u03_r6_network.node[27].core_layer 	interests[27] 	13448
scalar tree_4_3_u03_r6_network.node[27].core_layer 	data[27] 	9527
scalar tree_4_3_u03_r6_network.node[27].content_store 	p_hit[27] 	0.29156751933373
scalar tree_4_3_u03_r6_network.node[27].content_store 	hits[27] 	3921
scalar tree_4_3_u03_r6_network.node[27].content_store 	misses[27] 	9527
scalar tree_4_3_u03_r6_network.node[27].content_store 	decision_yes[27] 	954
scalar tree_4_3_u03_r6_network.node[27].content_store 	decision_no[27] 	8573
scalar tree_4_3_u03_r6_network.node[27].content_store 	decision_ratio[27] 	0.10013645428781
scalar tree_4_3_u03_r6_network.node[28].core_layer 	interests[28] 	12929
scalar tree_4_3_u03_r6_network.node[28].core_layer 	data[28] 	9547
scalar tree_4_3_u03_r6_network.node[28].content_store 	p_hit[28] 	0.26158248897827
scalar tree_4_3_u03_r6_network.node[28].content_store 	hits[28] 	3382
scalar tree_4_3_u03_r6_network.node[28].content_store 	misses[28] 	9547
scalar tree_4_3_u03_r6_network.node[28].content_store 	decision_yes[28] 	946
scalar tree_4_3_u03_r6_network.node[28].content_store 	decision_no[28] 	8601
scalar tree_4_3_u03_r6_network.node[28].content_store 	decision_ratio[28] 	0.09908871896931
scalar tree_4_3_u03_r6_network.node[29].core_layer 	interests[29] 	13516
scalar tree_4_3_u03_r6_network.node[29].core_layer 	data[29] 	9377
scalar tree_4_3_u03_r6_network.node[29].content_store 	p_hit[29] 	0.30622965374371
scalar tree_4_3_u03_r6_network.node[29].content_store 	hits[29] 	4139
scalar tree_4_3_u03_r6_network.node[29].content_store 	misses[29] 	9377
scalar tree_4_3_u03_r6_network.node[29].content_store 	decision_yes[29] 	947
scalar tree_4_3_u03_r6_network.node[29].content_store 	decision_no[29] 	8430
scalar tree_4_3_u03_r6_network.node[29].content_store 	decision_ratio[29] 	0.10099178841847
scalar tree_4_3_u03_r6_network.node[30].core_layer 	interests[30] 	12873
scalar tree_4_3_u03_r6_network.node[30].core_layer 	data[30] 	9528
scalar tree_4_3_u03_r6_network.node[30].content_store 	p_hit[30] 	0.25992387166939
scalar tree_4_3_u03_r6_network.node[30].content_store 	hits[30] 	3346
scalar tree_4_3_u03_r6_network.node[30].content_store 	misses[30] 	9527
scalar tree_4_3_u03_r6_network.node[30].content_store 	decision_yes[30] 	919
scalar tree_4_3_u03_r6_network.node[30].content_store 	decision_no[30] 	8609
scalar tree_4_3_u03_r6_network.node[30].content_store 	decision_ratio[30] 	0.096452560873216
scalar tree_4_3_u03_r6_network.node[31].core_layer 	interests[31] 	13483
scalar tree_4_3_u03_r6_network.node[31].core_layer 	data[31] 	9567
scalar tree_4_3_u03_r6_network.node[31].content_store 	p_hit[31] 	0.29043981309798
scalar tree_4_3_u03_r6_network.node[31].content_store 	hits[31] 	3916
scalar tree_4_3_u03_r6_network.node[31].content_store 	misses[31] 	9567
scalar tree_4_3_u03_r6_network.node[31].content_store 	decision_yes[31] 	921
scalar tree_4_3_u03_r6_network.node[31].content_store 	decision_no[31] 	8646
scalar tree_4_3_u03_r6_network.node[31].content_store 	decision_ratio[31] 	0.096268422703042
scalar tree_4_3_u03_r6_network.node[32].core_layer 	interests[32] 	13029
scalar tree_4_3_u03_r6_network.node[32].core_layer 	data[32] 	9456
scalar tree_4_3_u03_r6_network.node[32].content_store 	p_hit[32] 	0.2742344001842
scalar tree_4_3_u03_r6_network.node[32].content_store 	hits[32] 	3573
scalar tree_4_3_u03_r6_network.node[32].content_store 	misses[32] 	9456
scalar tree_4_3_u03_r6_network.node[32].content_store 	decision_yes[32] 	934
scalar tree_4_3_u03_r6_network.node[32].content_store 	decision_no[32] 	8522
scalar tree_4_3_u03_r6_network.node[32].content_store 	decision_ratio[32] 	0.098773265651438
scalar tree_4_3_u03_r6_network.node[33].core_layer 	interests[33] 	13149
scalar tree_4_3_u03_r6_network.node[33].core_layer 	data[33] 	9473
scalar tree_4_3_u03_r6_network.node[33].content_store 	p_hit[33] 	0.27956498593049
scalar tree_4_3_u03_r6_network.node[33].content_store 	hits[33] 	3676
scalar tree_4_3_u03_r6_network.node[33].content_store 	misses[33] 	9473
scalar tree_4_3_u03_r6_network.node[33].content_store 	decision_yes[33] 	963
scalar tree_4_3_u03_r6_network.node[33].content_store 	decision_no[33] 	8510
scalar tree_4_3_u03_r6_network.node[33].content_store 	decision_ratio[33] 	0.10165734191914
scalar tree_4_3_u03_r6_network.node[34].core_layer 	interests[34] 	14036
scalar tree_4_3_u03_r6_network.node[34].core_layer 	data[34] 	9752
scalar tree_4_3_u03_r6_network.node[34].content_store 	p_hit[34] 	0.30521516101453
scalar tree_4_3_u03_r6_network.node[34].content_store 	hits[34] 	4284
scalar tree_4_3_u03_r6_network.node[34].content_store 	misses[34] 	9752
scalar tree_4_3_u03_r6_network.node[34].content_store 	decision_yes[34] 	1004
scalar tree_4_3_u03_r6_network.node[34].content_store 	decision_no[34] 	8748
scalar tree_4_3_u03_r6_network.node[34].content_store 	decision_ratio[34] 	0.10295324036095
scalar tree_4_3_u03_r6_network.node[35].core_layer 	interests[35] 	12567
scalar tree_4_3_u03_r6_network.node[35].core_layer 	data[35] 	9447
scalar tree_4_3_u03_r6_network.node[35].content_store 	p_hit[35] 	0.24826927667701
scalar tree_4_3_u03_r6_network.node[35].content_store 	hits[35] 	3120
scalar tree_4_3_u03_r6_network.node[35].content_store 	misses[35] 	9447
scalar tree_4_3_u03_r6_network.node[35].content_store 	decision_yes[35] 	972
scalar tree_4_3_u03_r6_network.node[35].content_store 	decision_no[35] 	8475
scalar tree_4_3_u03_r6_network.node[35].content_store 	decision_ratio[35] 	0.10288980628771
scalar tree_4_3_u03_r6_network.node[36].core_layer 	interests[36] 	13758
scalar tree_4_3_u03_r6_network.node[36].core_layer 	data[36] 	9478
scalar tree_4_3_u03_r6_network.node[36].content_store 	p_hit[36] 	0.3110917284489
scalar tree_4_3_u03_r6_network.node[36].content_store 	hits[36] 	4280
scalar tree_4_3_u03_r6_network.node[36].content_store 	misses[36] 	9478
scalar tree_4_3_u03_r6_network.node[36].content_store 	decision_yes[36] 	941
scalar tree_4_3_u03_r6_network.node[36].content_store 	decision_no[36] 	8537
scalar tree_4_3_u03_r6_network.node[36].content_store 	decision_ratio[36] 	0.099282549060983
scalar tree_4_3_u03_r6_network.node[37].core_layer 	interests[37] 	13178
scalar tree_4_3_u03_r6_network.node[37].core_layer 	data[37] 	9632
scalar tree_4_3_u03_r6_network.node[37].content_store 	p_hit[37] 	0.2690089543178
scalar tree_4_3_u03_r6_network.node[37].content_store 	hits[37] 	3545
scalar tree_4_3_u03_r6_network.node[37].content_store 	misses[37] 	9633
scalar tree_4_3_u03_r6_network.node[37].content_store 	decision_yes[37] 	932
scalar tree_4_3_u03_r6_network.node[37].content_store 	decision_no[37] 	8700
scalar tree_4_3_u03_r6_network.node[37].content_store 	decision_ratio[37] 	0.096760797342193
scalar tree_4_3_u03_r6_network.node[38].core_layer 	interests[38] 	13050
scalar tree_4_3_u03_r6_network.node[38].core_layer 	data[38] 	9405
scalar tree_4_3_u03_r6_network.node[38].content_store 	p_hit[38] 	0.2792337164751
scalar tree_4_3_u03_r6_network.node[38].content_store 	hits[38] 	3644
scalar tree_4_3_u03_r6_network.node[38].content_store 	misses[38] 	9406
scalar tree_4_3_u03_r6_network.node[38].content_store 	decision_yes[38] 	945
scalar tree_4_3_u03_r6_network.node[38].content_store 	decision_no[38] 	8460
scalar tree_4_3_u03_r6_network.node[38].content_store 	decision_ratio[38] 	0.10047846889952
scalar tree_4_3_u03_r6_network.node[39].core_layer 	interests[39] 	13185
scalar tree_4_3_u03_r6_network.node[39].core_layer 	data[39] 	9667
scalar tree_4_3_u03_r6_network.node[39].content_store 	p_hit[39] 	0.26681835419037
scalar tree_4_3_u03_r6_network.node[39].content_store 	hits[39] 	3518
scalar tree_4_3_u03_r6_network.node[39].content_store 	misses[39] 	9667
scalar tree_4_3_u03_r6_network.node[39].content_store 	decision_yes[39] 	1015
scalar tree_4_3_u03_r6_network.node[39].content_store 	decision_no[39] 	8652
scalar tree_4_3_u03_r6_network.node[39].content_store 	decision_ratio[39] 	0.10499637943519
scalar tree_4_3_u03_r6_network.client[13] 	hdistance[13] 	2.9280635717273
scalar tree_4_3_u03_r6_network.client[13] 	downloads[13] 	11955
scalar tree_4_3_u03_r6_network.client[13] 	avg_time[13] 	0.00459640018
scalar tree_4_3_u03_r6_network.client[14] 	hdistance[14] 	2.9450495049505
scalar tree_4_3_u03_r6_network.client[14] 	downloads[14] 	12120
scalar tree_4_3_u03_r6_network.client[14] 	avg_time[14] 	0.004617653726
scalar tree_4_3_u03_r6_network.client[15] 	hdistance[15] 	2.773061967403
scalar tree_4_3_u03_r6_network.client[15] 	downloads[15] 	12087
scalar tree_4_3_u03_r6_network.client[15] 	avg_time[15] 	0.00439959984
scalar tree_4_3_u03_r6_network.client[16] 	hdistance[16] 	2.8160632542655
scalar tree_4_3_u03_r6_network.client[16] 	downloads[16] 	12015
scalar tree_4_3_u03_r6_network.client[16] 	avg_time[16] 	0.004384864081
scalar tree_4_3_u03_r6_network.client[17] 	hdistance[17] 	2.8966227347611
scalar tree_4_3_u03_r6_network.client[17] 	downloads[17] 	12140
scalar tree_4_3_u03_r6_network.client[17] 	avg_time[17] 	0.004557799254
scalar tree_4_3_u03_r6_network.client[18] 	hdistance[18] 	2.9312760633862
scalar tree_4_3_u03_r6_network.client[18] 	downloads[18] 	11990
scalar tree_4_3_u03_r6_network.client[18] 	avg_time[18] 	0.004603666713
scalar tree_4_3_u03_r6_network.client[19] 	hdistance[19] 	2.8706176961603
scalar tree_4_3_u03_r6_network.client[19] 	downloads[19] 	11980
scalar tree_4_3_u03_r6_network.client[19] 	avg_time[19] 	0.004577125554
scalar tree_4_3_u03_r6_network.client[20] 	hdistance[20] 	2.8364954886584
scalar tree_4_3_u03_r6_network.client[20] 	downloads[20] 	11859
scalar tree_4_3_u03_r6_network.client[20] 	avg_time[20] 	0.004527866159
scalar tree_4_3_u03_r6_network.client[21] 	hdistance[21] 	2.8805000411218
scalar tree_4_3_u03_r6_network.client[21] 	downloads[21] 	12159
scalar tree_4_3_u03_r6_network.client[21] 	avg_time[21] 	0.00460317157
scalar tree_4_3_u03_r6_network.client[22] 	hdistance[22] 	2.9307881773399
scalar tree_4_3_u03_r6_network.client[22] 	downloads[22] 	12180
scalar tree_4_3_u03_r6_network.client[22] 	avg_time[22] 	0.004590473118
scalar tree_4_3_u03_r6_network.client[23] 	hdistance[23] 	2.9038134564003
scalar tree_4_3_u03_r6_network.client[23] 	downloads[23] 	12351
scalar tree_4_3_u03_r6_network.client[23] 	avg_time[23] 	0.004549264166
scalar tree_4_3_u03_r6_network.client[24] 	hdistance[24] 	2.8810445670978
scalar tree_4_3_u03_r6_network.client[24] 	downloads[24] 	12139
scalar tree_4_3_u03_r6_network.client[24] 	avg_time[24] 	0.004521962609
scalar tree_4_3_u03_r6_network.client[25] 	hdistance[25] 	2.8108723135272
scalar tree_4_3_u03_r6_network.client[25] 	downloads[25] 	11865
scalar tree_4_3_u03_r6_network.client[25] 	avg_time[25] 	0.004361564668
scalar tree_4_3_u03_r6_network.client[26] 	hdistance[26] 	2.900408367364
scalar tree_4_3_u03_r6_network.client[26] 	downloads[26] 	11999
scalar tree_4_3_u03_r6_network.client[26] 	avg_time[26] 	0.004540042032
scalar tree_4_3_u03_r6_network.client[27] 	hdistance[27] 	2.8366307705151
scalar tree_4_3_u03_r6_network.client[27] 	downloads[27] 	11979
scalar tree_4_3_u03_r6_network.client[27] 	avg_time[27] 	0.00441188445
scalar tree_4_3_u03_r6_network.client[28] 	hdistance[28] 	2.8713484073279
scalar tree_4_3_u03_r6_network.client[28] 	downloads[28] 	12118
scalar tree_4_3_u03_r6_network.client[28] 	avg_time[28] 	0.004502390094
scalar tree_4_3_u03_r6_network.client[29] 	hdistance[29] 	2.7840578505527
scalar tree_4_3_u03_r6_network.client[29] 	downloads[29] 	12031
scalar tree_4_3_u03_r6_network.client[29] 	avg_time[29] 	0.0043261544
scalar tree_4_3_u03_r6_network.client[30] 	hdistance[30] 	2.8819756788273
scalar tree_4_3_u03_r6_network.client[30] 	downloads[30] 	12006
scalar tree_4_3_u03_r6_network.client[30] 	avg_time[30] 	0.00451690519
scalar tree_4_3_u03_r6_network.client[31] 	hdistance[31] 	2.85602568324
scalar tree_4_3_u03_r6_network.client[31] 	downloads[31] 	12148
scalar tree_4_3_u03_r6_network.client[31] 	avg_time[31] 	0.004530178348
scalar tree_4_3_u03_r6_network.client[32] 	hdistance[32] 	2.9053768886638
scalar tree_4_3_u03_r6_network.client[32] 	downloads[32] 	11847
scalar tree_4_3_u03_r6_network.client[32] 	avg_time[32] 	0.004608083487
scalar tree_4_3_u03_r6_network.client[33] 	hdistance[33] 	2.8904993297587
scalar tree_4_3_u03_r6_network.client[33] 	downloads[33] 	11936
scalar tree_4_3_u03_r6_network.client[33] 	avg_time[33] 	0.004577409888
scalar tree_4_3_u03_r6_network.client[34] 	hdistance[34] 	2.8537949181811
scalar tree_4_3_u03_r6_network.client[34] 	downloads[34] 	12161
scalar tree_4_3_u03_r6_network.client[34] 	avg_time[34] 	0.004490252695
scalar tree_4_3_u03_r6_network.client[35] 	hdistance[35] 	2.9179262011315
scalar tree_4_3_u03_r6_network.client[35] 	downloads[35] 	11843
scalar tree_4_3_u03_r6_network.client[35] 	avg_time[35] 	0.004628553995
scalar tree_4_3_u03_r6_network.client[36] 	hdistance[36] 	2.8158985411141
scalar tree_4_3_u03_r6_network.client[36] 	downloads[36] 	12064
scalar tree_4_3_u03_r6_network.client[36] 	avg_time[36] 	0.00442357123
scalar tree_4_3_u03_r6_network.client[37] 	hdistance[37] 	2.902698215027
scalar tree_4_3_u03_r6_network.client[37] 	downloads[37] 	12045
scalar tree_4_3_u03_r6_network.client[37] 	avg_time[37] 	0.004604362895
scalar tree_4_3_u03_r6_network.client[38] 	hdistance[38] 	2.8817050613755
scalar tree_4_3_u03_r6_network.client[38] 	downloads[38] 	11894
scalar tree_4_3_u03_r6_network.client[38] 	avg_time[38] 	0.00456166839
scalar tree_4_3_u03_r6_network.client[39] 	hdistance[39] 	2.898393507784
scalar tree_4_3_u03_r6_network.client[39] 	downloads[39] 	12076
scalar tree_4_3_u03_r6_network.client[39] 	avg_time[39] 	0.004596717741
