version 2
run General-71-20160819-07:56:08-13837
attr a 0.9
attr cd fix0.1
attr configname General
attr cr lru
attr datetime 20160819-07:56:08
attr experiment General
attr fsize 1
attr inifile hw5115/scenario_A/NRR-FIX0.1.ini
attr iterationvars "$name=tree_4_3, $un=03, $rep=12, $cd=fix0.1, $cr=lru, $fsize=1, $a=0.9, $sl=nrr, $ttl=1000, $variance=0.05"
attr iterationvars2 "$name=tree_4_3, $un=03, $rep=12, $cd=fix0.1, $cr=lru, $fsize=1, $a=0.9, $sl=nrr, $ttl=1000, $variance=0.05, $repetition=0"
attr measurement "$name=tree_4_3, $un=03, $rep=12, $cd=fix0.1, $cr=lru, $fsize=1, $a=0.9, $sl=nrr, $ttl=1000, $variance=0.05"
attr name tree_4_3
attr network networks.${name}_u${un}_r${rep}_network
attr processid 13837
attr rep 12
attr repetition 0
attr replication #0
attr resultdir results
attr runnumber 71
attr seedset 12
attr sl nrr
attr ttl 1000
attr un 03
attr variance 0.05

scalar . 	a 	0.9
scalar . 	fsize 	1
scalar . 	rep 	12
scalar . 	ttl 	1000
scalar . 	un 	03
scalar . 	variance 	0.05
scalar tree_4_3_u03_r12_network.content_distribution 	repo-0 	0
scalar tree_4_3_u03_r12_network.content_distribution 	client-0 	13
scalar tree_4_3_u03_r12_network.content_distribution 	client-1 	14
scalar tree_4_3_u03_r12_network.content_distribution 	client-2 	15
scalar tree_4_3_u03_r12_network.content_distribution 	client-3 	16
scalar tree_4_3_u03_r12_network.content_distribution 	client-4 	17
scalar tree_4_3_u03_r12_network.content_distribution 	client-5 	18
scalar tree_4_3_u03_r12_network.content_distribution 	client-6 	19
scalar tree_4_3_u03_r12_network.content_distribution 	client-7 	20
scalar tree_4_3_u03_r12_network.content_distribution 	client-8 	21
scalar tree_4_3_u03_r12_network.content_distribution 	client-9 	22
scalar tree_4_3_u03_r12_network.content_distribution 	client-10 	23
scalar tree_4_3_u03_r12_network.content_distribution 	client-11 	24
scalar tree_4_3_u03_r12_network.content_distribution 	client-12 	25
scalar tree_4_3_u03_r12_network.content_distribution 	client-13 	26
scalar tree_4_3_u03_r12_network.content_distribution 	client-14 	27
scalar tree_4_3_u03_r12_network.content_distribution 	client-15 	28
scalar tree_4_3_u03_r12_network.content_distribution 	client-16 	29
scalar tree_4_3_u03_r12_network.content_distribution 	client-17 	30
scalar tree_4_3_u03_r12_network.content_distribution 	client-18 	31
scalar tree_4_3_u03_r12_network.content_distribution 	client-19 	32
scalar tree_4_3_u03_r12_network.content_distribution 	client-20 	33
scalar tree_4_3_u03_r12_network.content_distribution 	client-21 	34
scalar tree_4_3_u03_r12_network.content_distribution 	client-22 	35
scalar tree_4_3_u03_r12_network.content_distribution 	client-23 	36
scalar tree_4_3_u03_r12_network.content_distribution 	client-24 	37
scalar tree_4_3_u03_r12_network.content_distribution 	client-25 	38
scalar tree_4_3_u03_r12_network.content_distribution 	client-26 	39
scalar tree_4_3_u03_r12_network.content_distribution 	repo-0_card 	100000
scalar tree_4_3_u03_r12_network.content_distribution 	repo-0_price 	0
scalar tree_4_3_u03_r12_network.statistics 	stabilization_time 	675.5
scalar tree_4_3_u03_r12_network.statistics 	p_hit 	0.21277175221128
scalar tree_4_3_u03_r12_network.statistics 	interests 	26391.95
scalar tree_4_3_u03_r12_network.statistics 	data 	18292.65
scalar tree_4_3_u03_r12_network.statistics 	hdistance 	2.8649925234495
scalar tree_4_3_u03_r12_network.statistics 	avg_time 	0.004517109824
scalar tree_4_3_u03_r12_network.statistics 	downloads 	323968
scalar tree_4_3_u03_r12_network.statistics 	total_cost 	0
scalar tree_4_3_u03_r12_network.statistics 	total_replicas 	100000
scalar tree_4_3_u03_r12_network.statistics 	inner_hit 	0.39366851047017
scalar tree_4_3_u03_r12_network.node[0].core_layer 	interests[0] 	197796
scalar tree_4_3_u03_r12_network.node[0].core_layer 	repo_load[0] 	196432
scalar tree_4_3_u03_r12_network.node[0].core_layer 	data[0] 	0
scalar tree_4_3_u03_r12_network.node[0].core_layer 	repo_int[0] 	196432
scalar tree_4_3_u03_r12_network.node[0].content_store 	p_hit[0] 	0.0068959938522518
scalar tree_4_3_u03_r12_network.node[0].content_store 	hits[0] 	1364
scalar tree_4_3_u03_r12_network.node[0].content_store 	misses[0] 	196432
scalar tree_4_3_u03_r12_network.node[0].content_store 	decision_yes[0] 	19604
scalar tree_4_3_u03_r12_network.node[0].content_store 	decision_no[0] 	176828
scalar tree_4_3_u03_r12_network.node[0].content_store 	decision_ratio[0] 	0.099800439846868
scalar tree_4_3_u03_r12_network.node[1].core_layer 	interests[1] 	70729
scalar tree_4_3_u03_r12_network.node[1].core_layer 	data[1] 	69927
scalar tree_4_3_u03_r12_network.node[1].content_store 	p_hit[1] 	0.011339054701749
scalar tree_4_3_u03_r12_network.node[1].content_store 	hits[1] 	802
scalar tree_4_3_u03_r12_network.node[1].content_store 	misses[1] 	69927
scalar tree_4_3_u03_r12_network.node[1].content_store 	decision_yes[1] 	7005
scalar tree_4_3_u03_r12_network.node[1].content_store 	decision_no[1] 	62922
scalar tree_4_3_u03_r12_network.node[1].content_store 	decision_ratio[1] 	0.10017589772191
scalar tree_4_3_u03_r12_network.node[2].core_layer 	interests[2] 	74104
scalar tree_4_3_u03_r12_network.node[2].core_layer 	data[2] 	73224
scalar tree_4_3_u03_r12_network.node[2].content_store 	p_hit[2] 	0.011888696966426
scalar tree_4_3_u03_r12_network.node[2].content_store 	hits[2] 	881
scalar tree_4_3_u03_r12_network.node[2].content_store 	misses[2] 	73223
scalar tree_4_3_u03_r12_network.node[2].content_store 	decision_yes[2] 	7388
scalar tree_4_3_u03_r12_network.node[2].content_store 	decision_no[2] 	65836
scalar tree_4_3_u03_r12_network.node[2].content_store 	decision_ratio[2] 	0.10089588113187
scalar tree_4_3_u03_r12_network.node[3].core_layer 	interests[3] 	77040
scalar tree_4_3_u03_r12_network.node[3].core_layer 	data[3] 	75623
scalar tree_4_3_u03_r12_network.node[3].content_store 	p_hit[3] 	0.018341121495327
scalar tree_4_3_u03_r12_network.node[3].content_store 	hits[3] 	1413
scalar tree_4_3_u03_r12_network.node[3].content_store 	misses[3] 	75627
scalar tree_4_3_u03_r12_network.node[3].content_store 	decision_yes[3] 	7441
scalar tree_4_3_u03_r12_network.node[3].content_store 	decision_no[3] 	68181
scalar tree_4_3_u03_r12_network.node[3].content_store 	decision_ratio[3] 	0.098397291793393
scalar tree_4_3_u03_r12_network.node[4].core_layer 	interests[4] 	28238
scalar tree_4_3_u03_r12_network.node[4].core_layer 	data[4] 	26783
scalar tree_4_3_u03_r12_network.node[4].content_store 	p_hit[4] 	0.051490898788866
scalar tree_4_3_u03_r12_network.node[4].content_store 	hits[4] 	1454
scalar tree_4_3_u03_r12_network.node[4].content_store 	misses[4] 	26784
scalar tree_4_3_u03_r12_network.node[4].content_store 	decision_yes[4] 	2674
scalar tree_4_3_u03_r12_network.node[4].content_store 	decision_no[4] 	24109
scalar tree_4_3_u03_r12_network.node[4].content_store 	decision_ratio[4] 	0.09983945039764
scalar tree_4_3_u03_r12_network.node[5].core_layer 	interests[5] 	27831
scalar tree_4_3_u03_r12_network.node[5].core_layer 	data[5] 	26489
scalar tree_4_3_u03_r12_network.node[5].content_store 	p_hit[5] 	0.048219611224893
scalar tree_4_3_u03_r12_network.node[5].content_store 	hits[5] 	1342
scalar tree_4_3_u03_r12_network.node[5].content_store 	misses[5] 	26489
scalar tree_4_3_u03_r12_network.node[5].content_store 	decision_yes[5] 	2768
scalar tree_4_3_u03_r12_network.node[5].content_store 	decision_no[5] 	23721
scalar tree_4_3_u03_r12_network.node[5].content_store 	decision_ratio[5] 	0.10449620597229
scalar tree_4_3_u03_r12_network.node[6].core_layer 	interests[6] 	38260
scalar tree_4_3_u03_r12_network.node[6].core_layer 	data[6] 	33942
scalar tree_4_3_u03_r12_network.node[6].content_store 	p_hit[6] 	0.11283324621014
scalar tree_4_3_u03_r12_network.node[6].content_store 	hits[6] 	4317
scalar tree_4_3_u03_r12_network.node[6].content_store 	misses[6] 	33943
scalar tree_4_3_u03_r12_network.node[6].content_store 	decision_yes[6] 	3334
scalar tree_4_3_u03_r12_network.node[6].content_store 	decision_no[6] 	30608
scalar tree_4_3_u03_r12_network.node[6].content_store 	decision_ratio[6] 	0.098226386188203
scalar tree_4_3_u03_r12_network.node[7].core_layer 	interests[7] 	38025
scalar tree_4_3_u03_r12_network.node[7].core_layer 	data[7] 	36339
scalar tree_4_3_u03_r12_network.node[7].content_store 	p_hit[7] 	0.04431295200526
scalar tree_4_3_u03_r12_network.node[7].content_store 	hits[7] 	1685
scalar tree_4_3_u03_r12_network.node[7].content_store 	misses[7] 	36340
scalar tree_4_3_u03_r12_network.node[7].content_store 	decision_yes[7] 	3583
scalar tree_4_3_u03_r12_network.node[7].content_store 	decision_no[7] 	32756
scalar tree_4_3_u03_r12_network.node[7].content_store 	decision_ratio[7] 	0.098599301026445
scalar tree_4_3_u03_r12_network.node[8].core_layer 	interests[8] 	21422
scalar tree_4_3_u03_r12_network.node[8].core_layer 	data[8] 	19415
scalar tree_4_3_u03_r12_network.node[8].content_store 	p_hit[8] 	0.093688731210905
scalar tree_4_3_u03_r12_network.node[8].content_store 	hits[8] 	2007
scalar tree_4_3_u03_r12_network.node[8].content_store 	misses[8] 	19415
scalar tree_4_3_u03_r12_network.node[8].content_store 	decision_yes[8] 	1972
scalar tree_4_3_u03_r12_network.node[8].content_store 	decision_no[8] 	17443
scalar tree_4_3_u03_r12_network.node[8].content_store 	decision_ratio[8] 	0.10157095029616
scalar tree_4_3_u03_r12_network.node[9].core_layer 	interests[9] 	31233
scalar tree_4_3_u03_r12_network.node[9].core_layer 	data[9] 	29065
scalar tree_4_3_u03_r12_network.node[9].content_store 	p_hit[9] 	0.069381743668556
scalar tree_4_3_u03_r12_network.node[9].content_store 	hits[9] 	2167
scalar tree_4_3_u03_r12_network.node[9].content_store 	misses[9] 	29066
scalar tree_4_3_u03_r12_network.node[9].content_store 	decision_yes[9] 	2868
scalar tree_4_3_u03_r12_network.node[9].content_store 	decision_no[9] 	26197
scalar tree_4_3_u03_r12_network.node[9].content_store 	decision_ratio[9] 	0.098675382762773
scalar tree_4_3_u03_r12_network.node[10].core_layer 	interests[10] 	39482
scalar tree_4_3_u03_r12_network.node[10].core_layer 	data[10] 	37400
scalar tree_4_3_u03_r12_network.node[10].content_store 	p_hit[10] 	0.052732890937642
scalar tree_4_3_u03_r12_network.node[10].content_store 	hits[10] 	2082
scalar tree_4_3_u03_r12_network.node[10].content_store 	misses[10] 	37400
scalar tree_4_3_u03_r12_network.node[10].content_store 	decision_yes[10] 	3674
scalar tree_4_3_u03_r12_network.node[10].content_store 	decision_no[10] 	33726
scalar tree_4_3_u03_r12_network.node[10].content_store 	decision_ratio[10] 	0.098235294117647
scalar tree_4_3_u03_r12_network.node[11].core_layer 	interests[11] 	38660
scalar tree_4_3_u03_r12_network.node[11].core_layer 	data[11] 	36764
scalar tree_4_3_u03_r12_network.node[11].content_store 	p_hit[11] 	0.048965338851526
scalar tree_4_3_u03_r12_network.node[11].content_store 	hits[11] 	1893
scalar tree_4_3_u03_r12_network.node[11].content_store 	misses[11] 	36767
scalar tree_4_3_u03_r12_network.node[11].content_store 	decision_yes[11] 	3670
scalar tree_4_3_u03_r12_network.node[11].content_store 	decision_no[11] 	33094
scalar tree_4_3_u03_r12_network.node[11].content_store 	decision_ratio[11] 	0.0998259166576
scalar tree_4_3_u03_r12_network.node[12].core_layer 	interests[12] 	14233
scalar tree_4_3_u03_r12_network.node[12].core_layer 	data[12] 	10328
scalar tree_4_3_u03_r12_network.node[12].content_store 	p_hit[12] 	0.27429213798918
scalar tree_4_3_u03_r12_network.node[12].content_store 	hits[12] 	3904
scalar tree_4_3_u03_r12_network.node[12].content_store 	misses[12] 	10329
scalar tree_4_3_u03_r12_network.node[12].content_store 	decision_yes[12] 	1019
scalar tree_4_3_u03_r12_network.node[12].content_store 	decision_no[12] 	9309
scalar tree_4_3_u03_r12_network.node[12].content_store 	decision_ratio[12] 	0.098663826491092
scalar tree_4_3_u03_r12_network.node[13].core_layer 	interests[13] 	12813
scalar tree_4_3_u03_r12_network.node[13].core_layer 	data[13] 	9507
scalar tree_4_3_u03_r12_network.node[13].content_store 	p_hit[13] 	0.25794115351596
scalar tree_4_3_u03_r12_network.node[13].content_store 	hits[13] 	3305
scalar tree_4_3_u03_r12_network.node[13].content_store 	misses[13] 	9508
scalar tree_4_3_u03_r12_network.node[13].content_store 	decision_yes[13] 	919
scalar tree_4_3_u03_r12_network.node[13].content_store 	decision_no[13] 	8588
scalar tree_4_3_u03_r12_network.node[13].content_store 	decision_ratio[13] 	0.09666561481014
scalar tree_4_3_u03_r12_network.node[14].core_layer 	interests[14] 	12762
scalar tree_4_3_u03_r12_network.node[14].core_layer 	data[14] 	9517
scalar tree_4_3_u03_r12_network.node[14].content_store 	p_hit[14] 	0.25427049051873
scalar tree_4_3_u03_r12_network.node[14].content_store 	hits[14] 	3245
scalar tree_4_3_u03_r12_network.node[14].content_store 	misses[14] 	9517
scalar tree_4_3_u03_r12_network.node[14].content_store 	decision_yes[14] 	942
scalar tree_4_3_u03_r12_network.node[14].content_store 	decision_no[14] 	8575
scalar tree_4_3_u03_r12_network.node[14].content_store 	decision_ratio[14] 	0.098980771251445
scalar tree_4_3_u03_r12_network.node[15].core_layer 	interests[15] 	14819
scalar tree_4_3_u03_r12_network.node[15].core_layer 	data[15] 	9662
scalar tree_4_3_u03_r12_network.node[15].content_store 	p_hit[15] 	0.34793170929212
scalar tree_4_3_u03_r12_network.node[15].content_store 	hits[15] 	5156
scalar tree_4_3_u03_r12_network.node[15].content_store 	misses[15] 	9663
scalar tree_4_3_u03_r12_network.node[15].content_store 	decision_yes[15] 	952
scalar tree_4_3_u03_r12_network.node[15].content_store 	decision_no[15] 	8710
scalar tree_4_3_u03_r12_network.node[15].content_store 	decision_ratio[15] 	0.098530324984475
scalar tree_4_3_u03_r12_network.node[16].core_layer 	interests[16] 	12644
scalar tree_4_3_u03_r12_network.node[16].core_layer 	data[16] 	9247
scalar tree_4_3_u03_r12_network.node[16].content_store 	p_hit[16] 	0.26866497943689
scalar tree_4_3_u03_r12_network.node[16].content_store 	hits[16] 	3397
scalar tree_4_3_u03_r12_network.node[16].content_store 	misses[16] 	9247
scalar tree_4_3_u03_r12_network.node[16].content_store 	decision_yes[16] 	977
scalar tree_4_3_u03_r12_network.node[16].content_store 	decision_no[16] 	8270
scalar tree_4_3_u03_r12_network.node[16].content_store 	decision_ratio[16] 	0.10565588839624
scalar tree_4_3_u03_r12_network.node[17].core_layer 	interests[17] 	12771
scalar tree_4_3_u03_r12_network.node[17].core_layer 	data[17] 	9531
scalar tree_4_3_u03_r12_network.node[17].content_store 	p_hit[17] 	0.25369978858351
scalar tree_4_3_u03_r12_network.node[17].content_store 	hits[17] 	3240
scalar tree_4_3_u03_r12_network.node[17].content_store 	misses[17] 	9531
scalar tree_4_3_u03_r12_network.node[17].content_store 	decision_yes[17] 	978
scalar tree_4_3_u03_r12_network.node[17].content_store 	decision_no[17] 	8553
scalar tree_4_3_u03_r12_network.node[17].content_store 	decision_ratio[17] 	0.10261252754171
scalar tree_4_3_u03_r12_network.node[18].core_layer 	interests[18] 	14234
scalar tree_4_3_u03_r12_network.node[18].core_layer 	data[18] 	9487
scalar tree_4_3_u03_r12_network.node[18].content_store 	p_hit[18] 	0.33356751440214
scalar tree_4_3_u03_r12_network.node[18].content_store 	hits[18] 	4748
scalar tree_4_3_u03_r12_network.node[18].content_store 	misses[18] 	9486
scalar tree_4_3_u03_r12_network.node[18].content_store 	decision_yes[18] 	952
scalar tree_4_3_u03_r12_network.node[18].content_store 	decision_no[18] 	8535
scalar tree_4_3_u03_r12_network.node[18].content_store 	decision_ratio[18] 	0.10034784441868
scalar tree_4_3_u03_r12_network.node[19].core_layer 	interests[19] 	13912
scalar tree_4_3_u03_r12_network.node[19].core_layer 	data[19] 	9677
scalar tree_4_3_u03_r12_network.node[19].content_store 	p_hit[19] 	0.3044134560092
scalar tree_4_3_u03_r12_network.node[19].content_store 	hits[19] 	4235
scalar tree_4_3_u03_r12_network.node[19].content_store 	misses[19] 	9677
scalar tree_4_3_u03_r12_network.node[19].content_store 	decision_yes[19] 	974
scalar tree_4_3_u03_r12_network.node[19].content_store 	decision_no[19] 	8703
scalar tree_4_3_u03_r12_network.node[19].content_store 	decision_ratio[19] 	0.10065102821122
scalar tree_4_3_u03_r12_network.node[20].core_layer 	interests[20] 	13665
scalar tree_4_3_u03_r12_network.node[20].core_layer 	data[20] 	9543
scalar tree_4_3_u03_r12_network.node[20].content_store 	p_hit[20] 	0.30164654226125
scalar tree_4_3_u03_r12_network.node[20].content_store 	hits[20] 	4122
scalar tree_4_3_u03_r12_network.node[20].content_store 	misses[20] 	9543
scalar tree_4_3_u03_r12_network.node[20].content_store 	decision_yes[20] 	971
scalar tree_4_3_u03_r12_network.node[20].content_store 	decision_no[20] 	8572
scalar tree_4_3_u03_r12_network.node[20].content_store 	decision_ratio[20] 	0.10174997380279
scalar tree_4_3_u03_r12_network.node[21].core_layer 	interests[21] 	13730
scalar tree_4_3_u03_r12_network.node[21].core_layer 	data[21] 	9579
scalar tree_4_3_u03_r12_network.node[21].content_store 	p_hit[21] 	0.30225782957028
scalar tree_4_3_u03_r12_network.node[21].content_store 	hits[21] 	4150
scalar tree_4_3_u03_r12_network.node[21].content_store 	misses[21] 	9580
scalar tree_4_3_u03_r12_network.node[21].content_store 	decision_yes[21] 	997
scalar tree_4_3_u03_r12_network.node[21].content_store 	decision_no[21] 	8582
scalar tree_4_3_u03_r12_network.node[21].content_store 	decision_ratio[21] 	0.10408184570414
scalar tree_4_3_u03_r12_network.node[22].core_layer 	interests[22] 	13036
scalar tree_4_3_u03_r12_network.node[22].core_layer 	data[22] 	9406
scalar tree_4_3_u03_r12_network.node[22].content_store 	p_hit[22] 	0.27838293955201
scalar tree_4_3_u03_r12_network.node[22].content_store 	hits[22] 	3629
scalar tree_4_3_u03_r12_network.node[22].content_store 	misses[22] 	9407
scalar tree_4_3_u03_r12_network.node[22].content_store 	decision_yes[22] 	932
scalar tree_4_3_u03_r12_network.node[22].content_store 	decision_no[22] 	8474
scalar tree_4_3_u03_r12_network.node[22].content_store 	decision_ratio[22] 	0.099085689985116
scalar tree_4_3_u03_r12_network.node[23].core_layer 	interests[23] 	12772
scalar tree_4_3_u03_r12_network.node[23].core_layer 	data[23] 	9491
scalar tree_4_3_u03_r12_network.node[23].content_store 	p_hit[23] 	0.25696836830567
scalar tree_4_3_u03_r12_network.node[23].content_store 	hits[23] 	3282
scalar tree_4_3_u03_r12_network.node[23].content_store 	misses[23] 	9490
scalar tree_4_3_u03_r12_network.node[23].content_store 	decision_yes[23] 	934
scalar tree_4_3_u03_r12_network.node[23].content_store 	decision_no[23] 	8557
scalar tree_4_3_u03_r12_network.node[23].content_store 	decision_ratio[23] 	0.098409019070699
scalar tree_4_3_u03_r12_network.node[24].core_layer 	interests[24] 	13989
scalar tree_4_3_u03_r12_network.node[24].core_layer 	data[24] 	9361
scalar tree_4_3_u03_r12_network.node[24].content_store 	p_hit[24] 	0.33083136750304
scalar tree_4_3_u03_r12_network.node[24].content_store 	hits[24] 	4628
scalar tree_4_3_u03_r12_network.node[24].content_store 	misses[24] 	9361
scalar tree_4_3_u03_r12_network.node[24].content_store 	decision_yes[24] 	920
scalar tree_4_3_u03_r12_network.node[24].content_store 	decision_no[24] 	8441
scalar tree_4_3_u03_r12_network.node[24].content_store 	decision_ratio[24] 	0.098280098280098
scalar tree_4_3_u03_r12_network.node[25].core_layer 	interests[25] 	13665
scalar tree_4_3_u03_r12_network.node[25].core_layer 	data[25] 	9351
scalar tree_4_3_u03_r12_network.node[25].content_store 	p_hit[25] 	0.31562385656787
scalar tree_4_3_u03_r12_network.node[25].content_store 	hits[25] 	4313
scalar tree_4_3_u03_r12_network.node[25].content_store 	misses[25] 	9352
scalar tree_4_3_u03_r12_network.node[25].content_store 	decision_yes[25] 	919
scalar tree_4_3_u03_r12_network.node[25].content_store 	decision_no[25] 	8432
scalar tree_4_3_u03_r12_network.node[25].content_store 	decision_ratio[25] 	0.098278259009732
scalar tree_4_3_u03_r12_network.node[26].core_layer 	interests[26] 	12902
scalar tree_4_3_u03_r12_network.node[26].core_layer 	data[26] 	9707
scalar tree_4_3_u03_r12_network.node[26].content_store 	p_hit[26] 	0.24771353278561
scalar tree_4_3_u03_r12_network.node[26].content_store 	hits[26] 	3196
scalar tree_4_3_u03_r12_network.node[26].content_store 	misses[26] 	9706
scalar tree_4_3_u03_r12_network.node[26].content_store 	decision_yes[26] 	946
scalar tree_4_3_u03_r12_network.node[26].content_store 	decision_no[26] 	8761
scalar tree_4_3_u03_r12_network.node[26].content_store 	decision_ratio[26] 	0.09745544452457
scalar tree_4_3_u03_r12_network.node[27].core_layer 	interests[27] 	12901
scalar tree_4_3_u03_r12_network.node[27].core_layer 	data[27] 	9504
scalar tree_4_3_u03_r12_network.node[27].content_store 	p_hit[27] 	0.26331292147896
scalar tree_4_3_u03_r12_network.node[27].content_store 	hits[27] 	3397
scalar tree_4_3_u03_r12_network.node[27].content_store 	misses[27] 	9504
scalar tree_4_3_u03_r12_network.node[27].content_store 	decision_yes[27] 	959
scalar tree_4_3_u03_r12_network.node[27].content_store 	decision_no[27] 	8545
scalar tree_4_3_u03_r12_network.node[27].content_store 	decision_ratio[27] 	0.10090488215488
scalar tree_4_3_u03_r12_network.node[28].core_layer 	interests[28] 	13089
scalar tree_4_3_u03_r12_network.node[28].core_layer 	data[28] 	9589
scalar tree_4_3_u03_r12_network.node[28].content_store 	p_hit[28] 	0.26740010696004
scalar tree_4_3_u03_r12_network.node[28].content_store 	hits[28] 	3500
scalar tree_4_3_u03_r12_network.node[28].content_store 	misses[28] 	9589
scalar tree_4_3_u03_r12_network.node[28].content_store 	decision_yes[28] 	937
scalar tree_4_3_u03_r12_network.node[28].content_store 	decision_no[28] 	8652
scalar tree_4_3_u03_r12_network.node[28].content_store 	decision_ratio[28] 	0.097716133069142
scalar tree_4_3_u03_r12_network.node[29].core_layer 	interests[29] 	13069
scalar tree_4_3_u03_r12_network.node[29].core_layer 	data[29] 	9581
scalar tree_4_3_u03_r12_network.node[29].content_store 	p_hit[29] 	0.26689111638228
scalar tree_4_3_u03_r12_network.node[29].content_store 	hits[29] 	3488
scalar tree_4_3_u03_r12_network.node[29].content_store 	misses[29] 	9581
scalar tree_4_3_u03_r12_network.node[29].content_store 	decision_yes[29] 	988
scalar tree_4_3_u03_r12_network.node[29].content_store 	decision_no[29] 	8593
scalar tree_4_3_u03_r12_network.node[29].content_store 	decision_ratio[29] 	0.10312075983718
scalar tree_4_3_u03_r12_network.node[30].core_layer 	interests[30] 	13055
scalar tree_4_3_u03_r12_network.node[30].core_layer 	data[30] 	9371
scalar tree_4_3_u03_r12_network.node[30].content_store 	p_hit[30] 	0.28219073152049
scalar tree_4_3_u03_r12_network.node[30].content_store 	hits[30] 	3684
scalar tree_4_3_u03_r12_network.node[30].content_store 	misses[30] 	9371
scalar tree_4_3_u03_r12_network.node[30].content_store 	decision_yes[30] 	924
scalar tree_4_3_u03_r12_network.node[30].content_store 	decision_no[30] 	8447
scalar tree_4_3_u03_r12_network.node[30].content_store 	decision_ratio[30] 	0.098602070216626
scalar tree_4_3_u03_r12_network.node[31].core_layer 	interests[31] 	13124
scalar tree_4_3_u03_r12_network.node[31].core_layer 	data[31] 	9534
scalar tree_4_3_u03_r12_network.node[31].content_store 	p_hit[31] 	0.27354465102103
scalar tree_4_3_u03_r12_network.node[31].content_store 	hits[31] 	3590
scalar tree_4_3_u03_r12_network.node[31].content_store 	misses[31] 	9534
scalar tree_4_3_u03_r12_network.node[31].content_store 	decision_yes[31] 	967
scalar tree_4_3_u03_r12_network.node[31].content_store 	decision_no[31] 	8567
scalar tree_4_3_u03_r12_network.node[31].content_store 	decision_ratio[31] 	0.10142647367317
scalar tree_4_3_u03_r12_network.node[32].core_layer 	interests[32] 	13135
scalar tree_4_3_u03_r12_network.node[32].core_layer 	data[32] 	9514
scalar tree_4_3_u03_r12_network.node[32].content_store 	p_hit[32] 	0.27559954320518
scalar tree_4_3_u03_r12_network.node[32].content_store 	hits[32] 	3620
scalar tree_4_3_u03_r12_network.node[32].content_store 	misses[32] 	9515
scalar tree_4_3_u03_r12_network.node[32].content_store 	decision_yes[32] 	972
scalar tree_4_3_u03_r12_network.node[32].content_store 	decision_no[32] 	8542
scalar tree_4_3_u03_r12_network.node[32].content_store 	decision_ratio[32] 	0.10216523018709
scalar tree_4_3_u03_r12_network.node[33].core_layer 	interests[33] 	13073
scalar tree_4_3_u03_r12_network.node[33].core_layer 	data[33] 	9544
scalar tree_4_3_u03_r12_network.node[33].content_store 	p_hit[33] 	0.26994568958923
scalar tree_4_3_u03_r12_network.node[33].content_store 	hits[33] 	3529
scalar tree_4_3_u03_r12_network.node[33].content_store 	misses[33] 	9544
scalar tree_4_3_u03_r12_network.node[33].content_store 	decision_yes[33] 	1003
scalar tree_4_3_u03_r12_network.node[33].content_store 	decision_no[33] 	8541
scalar tree_4_3_u03_r12_network.node[33].content_store 	decision_ratio[33] 	0.1050922045264
scalar tree_4_3_u03_r12_network.node[34].core_layer 	interests[34] 	12901
scalar tree_4_3_u03_r12_network.node[34].core_layer 	data[34] 	9427
scalar tree_4_3_u03_r12_network.node[34].content_store 	p_hit[34] 	0.26928145105031
scalar tree_4_3_u03_r12_network.node[34].content_store 	hits[34] 	3474
scalar tree_4_3_u03_r12_network.node[34].content_store 	misses[34] 	9427
scalar tree_4_3_u03_r12_network.node[34].content_store 	decision_yes[34] 	921
scalar tree_4_3_u03_r12_network.node[34].content_store 	decision_no[34] 	8506
scalar tree_4_3_u03_r12_network.node[34].content_store 	decision_ratio[34] 	0.097698101198685
scalar tree_4_3_u03_r12_network.node[35].core_layer 	interests[35] 	13036
scalar tree_4_3_u03_r12_network.node[35].core_layer 	data[35] 	9549
scalar tree_4_3_u03_r12_network.node[35].content_store 	p_hit[35] 	0.26749002761583
scalar tree_4_3_u03_r12_network.node[35].content_store 	hits[35] 	3487
scalar tree_4_3_u03_r12_network.node[35].content_store 	misses[35] 	9549
scalar tree_4_3_u03_r12_network.node[35].content_store 	decision_yes[35] 	938
scalar tree_4_3_u03_r12_network.node[35].content_store 	decision_no[35] 	8611
scalar tree_4_3_u03_r12_network.node[35].content_store 	decision_ratio[35] 	0.098230181170803
scalar tree_4_3_u03_r12_network.node[36].core_layer 	interests[36] 	13622
scalar tree_4_3_u03_r12_network.node[36].core_layer 	data[36] 	9445
scalar tree_4_3_u03_r12_network.node[36].content_store 	p_hit[36] 	0.30663632359419
scalar tree_4_3_u03_r12_network.node[36].content_store 	hits[36] 	4177
scalar tree_4_3_u03_r12_network.node[36].content_store 	misses[36] 	9445
scalar tree_4_3_u03_r12_network.node[36].content_store 	decision_yes[36] 	914
scalar tree_4_3_u03_r12_network.node[36].content_store 	decision_no[36] 	8531
scalar tree_4_3_u03_r12_network.node[36].content_store 	decision_ratio[36] 	0.096770778189518
scalar tree_4_3_u03_r12_network.node[37].core_layer 	interests[37] 	13861
scalar tree_4_3_u03_r12_network.node[37].core_layer 	data[37] 	9331
scalar tree_4_3_u03_r12_network.node[37].content_store 	p_hit[37] 	0.32681624702402
scalar tree_4_3_u03_r12_network.node[37].content_store 	hits[37] 	4530
scalar tree_4_3_u03_r12_network.node[37].content_store 	misses[37] 	9331
scalar tree_4_3_u03_r12_network.node[37].content_store 	decision_yes[37] 	949
scalar tree_4_3_u03_r12_network.node[37].content_store 	decision_no[37] 	8382
scalar tree_4_3_u03_r12_network.node[37].content_store 	decision_ratio[37] 	0.10170399742793
scalar tree_4_3_u03_r12_network.node[38].core_layer 	interests[38] 	13368
scalar tree_4_3_u03_r12_network.node[38].core_layer 	data[38] 	9469
scalar tree_4_3_u03_r12_network.node[38].content_store 	p_hit[38] 	0.29159186116098
scalar tree_4_3_u03_r12_network.node[38].content_store 	hits[38] 	3898
scalar tree_4_3_u03_r12_network.node[38].content_store 	misses[38] 	9470
scalar tree_4_3_u03_r12_network.node[38].content_store 	decision_yes[38] 	957
scalar tree_4_3_u03_r12_network.node[38].content_store 	decision_no[38] 	8512
scalar tree_4_3_u03_r12_network.node[38].content_store 	decision_ratio[38] 	0.10106663850459
scalar tree_4_3_u03_r12_network.node[39].core_layer 	interests[39] 	12677
scalar tree_4_3_u03_r12_network.node[39].core_layer 	data[39] 	9483
scalar tree_4_3_u03_r12_network.node[39].content_store 	p_hit[39] 	0.25187347164156
scalar tree_4_3_u03_r12_network.node[39].content_store 	hits[39] 	3193
scalar tree_4_3_u03_r12_network.node[39].content_store 	misses[39] 	9484
scalar tree_4_3_u03_r12_network.node[39].content_store 	decision_yes[39] 	953
scalar tree_4_3_u03_r12_network.node[39].content_store 	decision_no[39] 	8530
scalar tree_4_3_u03_r12_network.node[39].content_store 	decision_ratio[39] 	0.10049562374776
scalar tree_4_3_u03_r12_network.client[13] 	hdistance[13] 	2.9186345181871
scalar tree_4_3_u03_r12_network.client[13] 	downloads[13] 	12069
scalar tree_4_3_u03_r12_network.client[13] 	avg_time[13] 	0.004590269586
scalar tree_4_3_u03_r12_network.client[14] 	hdistance[14] 	2.9313129631171
scalar tree_4_3_u03_r12_network.client[14] 	downloads[14] 	12011
scalar tree_4_3_u03_r12_network.client[14] 	avg_time[14] 	0.004621593846
scalar tree_4_3_u03_r12_network.client[15] 	hdistance[15] 	2.7618853128574
scalar tree_4_3_u03_r12_network.client[15] 	downloads[15] 	12242
scalar tree_4_3_u03_r12_network.client[15] 	avg_time[15] 	0.00437947809
scalar tree_4_3_u03_r12_network.client[16] 	hdistance[16] 	2.8965517241379
scalar tree_4_3_u03_r12_network.client[16] 	downloads[16] 	11890
scalar tree_4_3_u03_r12_network.client[16] 	avg_time[16] 	0.004557608437
scalar tree_4_3_u03_r12_network.client[17] 	hdistance[17] 	2.9497299543
scalar tree_4_3_u03_r12_network.client[17] 	downloads[17] 	12035
scalar tree_4_3_u03_r12_network.client[17] 	avg_time[17] 	0.004626503017
scalar tree_4_3_u03_r12_network.client[18] 	hdistance[18] 	2.7771376085504
scalar tree_4_3_u03_r12_network.client[18] 	downloads[18] 	11976
scalar tree_4_3_u03_r12_network.client[18] 	avg_time[18] 	0.004405602548
scalar tree_4_3_u03_r12_network.client[19] 	hdistance[19] 	2.8095238095238
scalar tree_4_3_u03_r12_network.client[19] 	downloads[19] 	12243
scalar tree_4_3_u03_r12_network.client[19] 	avg_time[19] 	0.00447569734
scalar tree_4_3_u03_r12_network.client[20] 	hdistance[20] 	2.8331802621692
scalar tree_4_3_u03_r12_network.client[20] 	downloads[20] 	11977
scalar tree_4_3_u03_r12_network.client[20] 	avg_time[20] 	0.004517822845
scalar tree_4_3_u03_r12_network.client[21] 	hdistance[21] 	2.8314280980782
scalar tree_4_3_u03_r12_network.client[21] 	downloads[21] 	12072
scalar tree_4_3_u03_r12_network.client[21] 	avg_time[21] 	0.004505683575
scalar tree_4_3_u03_r12_network.client[22] 	hdistance[22] 	2.8939432018095
scalar tree_4_3_u03_r12_network.client[22] 	downloads[22] 	11937
scalar tree_4_3_u03_r12_network.client[22] 	avg_time[22] 	0.004535135481
scalar tree_4_3_u03_r12_network.client[23] 	hdistance[23] 	2.9098795586625
scalar tree_4_3_u03_r12_network.client[23] 	downloads[23] 	11873
scalar tree_4_3_u03_r12_network.client[23] 	avg_time[23] 	0.004571587603
scalar tree_4_3_u03_r12_network.client[24] 	hdistance[24] 	2.8277576472571
scalar tree_4_3_u03_r12_network.client[24] 	downloads[24] 	11867
scalar tree_4_3_u03_r12_network.client[24] 	avg_time[24] 	0.004386952445
scalar tree_4_3_u03_r12_network.client[25] 	hdistance[25] 	2.8244873850308
scalar tree_4_3_u03_r12_network.client[25] 	downloads[25] 	11851
scalar tree_4_3_u03_r12_network.client[25] 	avg_time[25] 	0.00439911945
scalar tree_4_3_u03_r12_network.client[26] 	hdistance[26] 	2.9476076357326
scalar tree_4_3_u03_r12_network.client[26] 	downloads[26] 	12101
scalar tree_4_3_u03_r12_network.client[26] 	avg_time[26] 	0.00462457344
scalar tree_4_3_u03_r12_network.client[27] 	hdistance[27] 	2.8917824074074
scalar tree_4_3_u03_r12_network.client[27] 	downloads[27] 	12096
scalar tree_4_3_u03_r12_network.client[27] 	avg_time[27] 	0.004550512467
scalar tree_4_3_u03_r12_network.client[28] 	hdistance[28] 	2.899468261881
scalar tree_4_3_u03_r12_network.client[28] 	downloads[28] 	12036
scalar tree_4_3_u03_r12_network.client[28] 	avg_time[28] 	0.004550013618
scalar tree_4_3_u03_r12_network.client[29] 	hdistance[29] 	2.8941869143378
scalar tree_4_3_u03_r12_network.client[29] 	downloads[29] 	12059
scalar tree_4_3_u03_r12_network.client[29] 	avg_time[29] 	0.004536688344
scalar tree_4_3_u03_r12_network.client[30] 	hdistance[30] 	2.8720696584059
scalar tree_4_3_u03_r12_network.client[30] 	downloads[30] 	11944
scalar tree_4_3_u03_r12_network.client[30] 	avg_time[30] 	0.004498155074
scalar tree_4_3_u03_r12_network.client[31] 	hdistance[31] 	2.8842184118528
scalar tree_4_3_u03_r12_network.client[31] 	downloads[31] 	12014
scalar tree_4_3_u03_r12_network.client[31] 	avg_time[31] 	0.004583815861
scalar tree_4_3_u03_r12_network.client[32] 	hdistance[32] 	2.8780386280386
scalar tree_4_3_u03_r12_network.client[32] 	downloads[32] 	12012
scalar tree_4_3_u03_r12_network.client[32] 	avg_time[32] 	0.004566639667
scalar tree_4_3_u03_r12_network.client[33] 	hdistance[33] 	2.903196194609
scalar tree_4_3_u03_r12_network.client[33] 	downloads[33] 	11983
scalar tree_4_3_u03_r12_network.client[33] 	avg_time[33] 	0.004611530014
scalar tree_4_3_u03_r12_network.client[34] 	hdistance[34] 	2.8854061341422
scalar tree_4_3_u03_r12_network.client[34] 	downloads[34] 	11868
scalar tree_4_3_u03_r12_network.client[34] 	avg_time[34] 	0.004582411437
scalar tree_4_3_u03_r12_network.client[35] 	hdistance[35] 	2.8945668378334
scalar tree_4_3_u03_r12_network.client[35] 	downloads[35] 	12074
scalar tree_4_3_u03_r12_network.client[35] 	avg_time[35] 	0.00459224655
scalar tree_4_3_u03_r12_network.client[36] 	hdistance[36] 	2.7844970218398
scalar tree_4_3_u03_r12_network.client[36] 	downloads[36] 	12088
scalar tree_4_3_u03_r12_network.client[36] 	avg_time[36] 	0.004380870574
scalar tree_4_3_u03_r12_network.client[37] 	hdistance[37] 	2.7737392477652
scalar tree_4_3_u03_r12_network.client[37] 	downloads[37] 	11858
scalar tree_4_3_u03_r12_network.client[37] 	avg_time[37] 	0.004355874954
scalar tree_4_3_u03_r12_network.client[38] 	hdistance[38] 	2.8185952501263
scalar tree_4_3_u03_r12_network.client[38] 	downloads[38] 	11874
scalar tree_4_3_u03_r12_network.client[38] 	avg_time[38] 	0.004429390739
scalar tree_4_3_u03_r12_network.client[39] 	hdistance[39] 	2.8619734854841
scalar tree_4_3_u03_r12_network.client[39] 	downloads[39] 	11918
scalar tree_4_3_u03_r12_network.client[39] 	avg_time[39] 	0.00452618825
