version 2
run General-204-20160818-20:47:45-19481
attr a 0.9
attr cd lce
attr configname General
attr cr lru
attr datetime 20160818-20:47:45
attr experiment General
attr fsize 1
attr inifile hw5115/scenario_A/EdgeCoop.ini
attr iterationvars "$name=tree_4_3, $un=10, $rep=5, $scenario=Edge, $cd=lce, $cr=lru, $fsize=1, $a=0.9, $sl=nrr, $ttl=1000, $variance=0.05"
attr iterationvars2 "$name=tree_4_3, $un=10, $rep=5, $scenario=Edge, $cd=lce, $cr=lru, $fsize=1, $a=0.9, $sl=nrr, $ttl=1000, $variance=0.05, $repetition=0"
attr measurement "$name=tree_4_3, $un=10, $rep=5, $scenario=Edge, $cd=lce, $cr=lru, $fsize=1, $a=0.9, $sl=nrr, $ttl=1000, $variance=0.05"
attr name tree_4_3
attr network networks.${name}_u${un}_r${rep}_network
attr processid 19481
attr rep 5
attr repetition 0
attr replication #0
attr resultdir results
attr runnumber 204
attr scenario Edge
attr seedset 5
attr sl nrr
attr ttl 1000
attr un 10
attr variance 0.05

scalar . 	a 	0.9
scalar . 	fsize 	1
scalar . 	rep 	5
scalar . 	ttl 	1000
scalar . 	un 	10
scalar . 	variance 	0.05
scalar tree_4_3_u10_r5_network.content_distribution 	repo-0 	0
scalar tree_4_3_u10_r5_network.content_distribution 	client-0 	13
scalar tree_4_3_u10_r5_network.content_distribution 	client-1 	14
scalar tree_4_3_u10_r5_network.content_distribution 	client-2 	15
scalar tree_4_3_u10_r5_network.content_distribution 	client-3 	16
scalar tree_4_3_u10_r5_network.content_distribution 	client-4 	17
scalar tree_4_3_u10_r5_network.content_distribution 	client-5 	18
scalar tree_4_3_u10_r5_network.content_distribution 	client-6 	19
scalar tree_4_3_u10_r5_network.content_distribution 	client-7 	20
scalar tree_4_3_u10_r5_network.content_distribution 	client-8 	21
scalar tree_4_3_u10_r5_network.content_distribution 	client-9 	22
scalar tree_4_3_u10_r5_network.content_distribution 	client-10 	23
scalar tree_4_3_u10_r5_network.content_distribution 	client-11 	24
scalar tree_4_3_u10_r5_network.content_distribution 	client-12 	25
scalar tree_4_3_u10_r5_network.content_distribution 	client-13 	26
scalar tree_4_3_u10_r5_network.content_distribution 	client-14 	27
scalar tree_4_3_u10_r5_network.content_distribution 	client-15 	28
scalar tree_4_3_u10_r5_network.content_distribution 	client-16 	29
scalar tree_4_3_u10_r5_network.content_distribution 	client-17 	30
scalar tree_4_3_u10_r5_network.content_distribution 	client-18 	31
scalar tree_4_3_u10_r5_network.content_distribution 	client-19 	32
scalar tree_4_3_u10_r5_network.content_distribution 	client-20 	33
scalar tree_4_3_u10_r5_network.content_distribution 	client-21 	34
scalar tree_4_3_u10_r5_network.content_distribution 	client-22 	35
scalar tree_4_3_u10_r5_network.content_distribution 	client-23 	36
scalar tree_4_3_u10_r5_network.content_distribution 	client-24 	37
scalar tree_4_3_u10_r5_network.content_distribution 	client-25 	38
scalar tree_4_3_u10_r5_network.content_distribution 	client-26 	39
scalar tree_4_3_u10_r5_network.content_distribution 	repo-0_card 	100000
scalar tree_4_3_u10_r5_network.content_distribution 	repo-0_price 	0
scalar tree_4_3_u10_r5_network.statistics 	stabilization_time 	331.8
scalar tree_4_3_u10_r5_network.statistics 	p_hit 	0.21758555943987
scalar tree_4_3_u10_r5_network.statistics 	interests 	28172.325
scalar tree_4_3_u10_r5_network.statistics 	data 	20067.475
scalar tree_4_3_u10_r5_network.statistics 	hdistance 	3.0763270316825
scalar tree_4_3_u10_r5_network.statistics 	avg_time 	0.004951897507
scalar tree_4_3_u10_r5_network.statistics 	downloads 	324183
scalar tree_4_3_u10_r5_network.statistics 	total_cost 	0
scalar tree_4_3_u10_r5_network.statistics 	total_replicas 	100000
scalar tree_4_3_u10_r5_network.statistics 	inner_hit 	0.3996662378965
scalar tree_4_3_u10_r5_network.node[0].core_layer 	interests[0] 	194618
scalar tree_4_3_u10_r5_network.node[0].core_layer 	repo_load[0] 	194618
scalar tree_4_3_u10_r5_network.node[0].core_layer 	data[0] 	0
scalar tree_4_3_u10_r5_network.node[0].core_layer 	repo_int[0] 	194618
scalar tree_4_3_u10_r5_network.node[0].content_store 	p_hit[0] 	0
scalar tree_4_3_u10_r5_network.node[0].content_store 	hits[0] 	0
scalar tree_4_3_u10_r5_network.node[0].content_store 	misses[0] 	194618
scalar tree_4_3_u10_r5_network.node[0].content_store 	decision_yes[0] 	0
scalar tree_4_3_u10_r5_network.node[0].content_store 	decision_no[0] 	194618
scalar tree_4_3_u10_r5_network.node[0].content_store 	decision_ratio[0] 	0
scalar tree_4_3_u10_r5_network.node[1].core_layer 	interests[1] 	153223
scalar tree_4_3_u10_r5_network.node[1].core_layer 	data[1] 	153212
scalar tree_4_3_u10_r5_network.node[1].content_store 	p_hit[1] 	0
scalar tree_4_3_u10_r5_network.node[1].content_store 	hits[1] 	0
scalar tree_4_3_u10_r5_network.node[1].content_store 	misses[1] 	153223
scalar tree_4_3_u10_r5_network.node[1].content_store 	decision_yes[1] 	0
scalar tree_4_3_u10_r5_network.node[1].content_store 	decision_no[1] 	153199
scalar tree_4_3_u10_r5_network.node[1].content_store 	decision_ratio[1] 	0
scalar tree_4_3_u10_r5_network.node[2].core_layer 	interests[2] 	60161
scalar tree_4_3_u10_r5_network.node[2].core_layer 	data[2] 	60161
scalar tree_4_3_u10_r5_network.node[2].content_store 	p_hit[2] 	0
scalar tree_4_3_u10_r5_network.node[2].content_store 	hits[2] 	0
scalar tree_4_3_u10_r5_network.node[2].content_store 	misses[2] 	60161
scalar tree_4_3_u10_r5_network.node[2].content_store 	decision_yes[2] 	0
scalar tree_4_3_u10_r5_network.node[2].content_store 	decision_no[2] 	60159
scalar tree_4_3_u10_r5_network.node[2].content_store 	decision_ratio[2] 	0
scalar tree_4_3_u10_r5_network.node[3].core_layer 	interests[3] 	14033
scalar tree_4_3_u10_r5_network.node[3].core_layer 	data[3] 	14033
scalar tree_4_3_u10_r5_network.node[3].content_store 	p_hit[3] 	0
scalar tree_4_3_u10_r5_network.node[3].content_store 	hits[3] 	0
scalar tree_4_3_u10_r5_network.node[3].content_store 	misses[3] 	14033
scalar tree_4_3_u10_r5_network.node[3].content_store 	decision_yes[3] 	0
scalar tree_4_3_u10_r5_network.node[3].content_store 	decision_no[3] 	14033
scalar tree_4_3_u10_r5_network.node[3].content_store 	decision_ratio[3] 	0
scalar tree_4_3_u10_r5_network.node[4].core_layer 	interests[4] 	49398
scalar tree_4_3_u10_r5_network.node[4].core_layer 	data[4] 	49396
scalar tree_4_3_u10_r5_network.node[4].content_store 	p_hit[4] 	0
scalar tree_4_3_u10_r5_network.node[4].content_store 	hits[4] 	0
scalar tree_4_3_u10_r5_network.node[4].content_store 	misses[4] 	49398
scalar tree_4_3_u10_r5_network.node[4].content_store 	decision_yes[4] 	0
scalar tree_4_3_u10_r5_network.node[4].content_store 	decision_no[4] 	49393
scalar tree_4_3_u10_r5_network.node[4].content_store 	decision_ratio[4] 	0
scalar tree_4_3_u10_r5_network.node[5].core_layer 	interests[5] 	35884
scalar tree_4_3_u10_r5_network.node[5].core_layer 	data[5] 	35882
scalar tree_4_3_u10_r5_network.node[5].content_store 	p_hit[5] 	0
scalar tree_4_3_u10_r5_network.node[5].content_store 	hits[5] 	0
scalar tree_4_3_u10_r5_network.node[5].content_store 	misses[5] 	35884
scalar tree_4_3_u10_r5_network.node[5].content_store 	decision_yes[5] 	0
scalar tree_4_3_u10_r5_network.node[5].content_store 	decision_no[5] 	35879
scalar tree_4_3_u10_r5_network.node[5].content_store 	decision_ratio[5] 	0
scalar tree_4_3_u10_r5_network.node[6].core_layer 	interests[6] 	16660
scalar tree_4_3_u10_r5_network.node[6].core_layer 	data[6] 	16660
scalar tree_4_3_u10_r5_network.node[6].content_store 	p_hit[6] 	0
scalar tree_4_3_u10_r5_network.node[6].content_store 	hits[6] 	0
scalar tree_4_3_u10_r5_network.node[6].content_store 	misses[6] 	16660
scalar tree_4_3_u10_r5_network.node[6].content_store 	decision_yes[6] 	0
scalar tree_4_3_u10_r5_network.node[6].content_store 	decision_no[6] 	16658
scalar tree_4_3_u10_r5_network.node[6].content_store 	decision_ratio[6] 	0
scalar tree_4_3_u10_r5_network.node[7].core_layer 	interests[7] 	53262
scalar tree_4_3_u10_r5_network.node[7].core_layer 	data[7] 	53260
scalar tree_4_3_u10_r5_network.node[7].content_store 	p_hit[7] 	0
scalar tree_4_3_u10_r5_network.node[7].content_store 	hits[7] 	0
scalar tree_4_3_u10_r5_network.node[7].content_store 	misses[7] 	53262
scalar tree_4_3_u10_r5_network.node[7].content_store 	decision_yes[7] 	0
scalar tree_4_3_u10_r5_network.node[7].content_store 	decision_no[7] 	53256
scalar tree_4_3_u10_r5_network.node[7].content_store 	decision_ratio[7] 	0
scalar tree_4_3_u10_r5_network.node[8].core_layer 	interests[8] 	31102
scalar tree_4_3_u10_r5_network.node[8].core_layer 	data[8] 	31100
scalar tree_4_3_u10_r5_network.node[8].content_store 	p_hit[8] 	0
scalar tree_4_3_u10_r5_network.node[8].content_store 	hits[8] 	0
scalar tree_4_3_u10_r5_network.node[8].content_store 	misses[8] 	31102
scalar tree_4_3_u10_r5_network.node[8].content_store 	decision_yes[8] 	0
scalar tree_4_3_u10_r5_network.node[8].content_store 	decision_no[8] 	31099
scalar tree_4_3_u10_r5_network.node[8].content_store 	decision_ratio[8] 	0
scalar tree_4_3_u10_r5_network.node[9].core_layer 	interests[9] 	16715
scalar tree_4_3_u10_r5_network.node[9].core_layer 	data[9] 	16715
scalar tree_4_3_u10_r5_network.node[9].content_store 	p_hit[9] 	0
scalar tree_4_3_u10_r5_network.node[9].content_store 	hits[9] 	0
scalar tree_4_3_u10_r5_network.node[9].content_store 	misses[9] 	16715
scalar tree_4_3_u10_r5_network.node[9].content_store 	decision_yes[9] 	0
scalar tree_4_3_u10_r5_network.node[9].content_store 	decision_no[9] 	16715
scalar tree_4_3_u10_r5_network.node[9].content_store 	decision_ratio[9] 	0
scalar tree_4_3_u10_r5_network.node[10].core_layer 	interests[10] 	52849
scalar tree_4_3_u10_r5_network.node[10].core_layer 	data[10] 	52845
scalar tree_4_3_u10_r5_network.node[10].content_store 	p_hit[10] 	0
scalar tree_4_3_u10_r5_network.node[10].content_store 	hits[10] 	0
scalar tree_4_3_u10_r5_network.node[10].content_store 	misses[10] 	52849
scalar tree_4_3_u10_r5_network.node[10].content_store 	decision_yes[10] 	0
scalar tree_4_3_u10_r5_network.node[10].content_store 	decision_no[10] 	52840
scalar tree_4_3_u10_r5_network.node[10].content_store 	decision_ratio[10] 	0
scalar tree_4_3_u10_r5_network.node[11].core_layer 	interests[11] 	34417
scalar tree_4_3_u10_r5_network.node[11].core_layer 	data[11] 	34413
scalar tree_4_3_u10_r5_network.node[11].content_store 	p_hit[11] 	0
scalar tree_4_3_u10_r5_network.node[11].content_store 	hits[11] 	0
scalar tree_4_3_u10_r5_network.node[11].content_store 	misses[11] 	34417
scalar tree_4_3_u10_r5_network.node[11].content_store 	decision_yes[11] 	0
scalar tree_4_3_u10_r5_network.node[11].content_store 	decision_no[11] 	34412
scalar tree_4_3_u10_r5_network.node[11].content_store 	decision_ratio[11] 	0
scalar tree_4_3_u10_r5_network.node[12].core_layer 	interests[12] 	13762
scalar tree_4_3_u10_r5_network.node[12].core_layer 	data[12] 	13760
scalar tree_4_3_u10_r5_network.node[12].content_store 	p_hit[12] 	0
scalar tree_4_3_u10_r5_network.node[12].content_store 	hits[12] 	0
scalar tree_4_3_u10_r5_network.node[12].content_store 	misses[12] 	13762
scalar tree_4_3_u10_r5_network.node[12].content_store 	decision_yes[12] 	0
scalar tree_4_3_u10_r5_network.node[12].content_store 	decision_no[12] 	13760
scalar tree_4_3_u10_r5_network.node[12].content_store 	decision_ratio[12] 	0
scalar tree_4_3_u10_r5_network.node[13].core_layer 	interests[13] 	13877
scalar tree_4_3_u10_r5_network.node[13].core_layer 	data[13] 	10037
scalar tree_4_3_u10_r5_network.node[13].content_store 	p_hit[13] 	0.27671686964041
scalar tree_4_3_u10_r5_network.node[13].content_store 	hits[13] 	3840
scalar tree_4_3_u10_r5_network.node[13].content_store 	misses[13] 	10037
scalar tree_4_3_u10_r5_network.node[13].content_store 	decision_yes[13] 	10037
scalar tree_4_3_u10_r5_network.node[13].content_store 	decision_no[13] 	0
scalar tree_4_3_u10_r5_network.node[13].content_store 	decision_ratio[13] 	1
scalar tree_4_3_u10_r5_network.node[14].core_layer 	interests[14] 	15099
scalar tree_4_3_u10_r5_network.node[14].core_layer 	data[14] 	10045
scalar tree_4_3_u10_r5_network.node[14].content_store 	p_hit[14] 	0.33472415391748
scalar tree_4_3_u10_r5_network.node[14].content_store 	hits[14] 	5054
scalar tree_4_3_u10_r5_network.node[14].content_store 	misses[14] 	10045
scalar tree_4_3_u10_r5_network.node[14].content_store 	decision_yes[14] 	10045
scalar tree_4_3_u10_r5_network.node[14].content_store 	decision_no[14] 	0
scalar tree_4_3_u10_r5_network.node[14].content_store 	decision_ratio[14] 	1
scalar tree_4_3_u10_r5_network.node[15].core_layer 	interests[15] 	15097
scalar tree_4_3_u10_r5_network.node[15].core_layer 	data[15] 	9919
scalar tree_4_3_u10_r5_network.node[15].content_store 	p_hit[15] 	0.3429158110883
scalar tree_4_3_u10_r5_network.node[15].content_store 	hits[15] 	5177
scalar tree_4_3_u10_r5_network.node[15].content_store 	misses[15] 	9920
scalar tree_4_3_u10_r5_network.node[15].content_store 	decision_yes[15] 	9919
scalar tree_4_3_u10_r5_network.node[15].content_store 	decision_no[15] 	0
scalar tree_4_3_u10_r5_network.node[15].content_store 	decision_ratio[15] 	1
scalar tree_4_3_u10_r5_network.node[16].core_layer 	interests[16] 	15233
scalar tree_4_3_u10_r5_network.node[16].core_layer 	data[16] 	10144
scalar tree_4_3_u10_r5_network.node[16].content_store 	p_hit[16] 	0.33407733210792
scalar tree_4_3_u10_r5_network.node[16].content_store 	hits[16] 	5089
scalar tree_4_3_u10_r5_network.node[16].content_store 	misses[16] 	10144
scalar tree_4_3_u10_r5_network.node[16].content_store 	decision_yes[16] 	10144
scalar tree_4_3_u10_r5_network.node[16].content_store 	decision_no[16] 	0
scalar tree_4_3_u10_r5_network.node[16].content_store 	decision_ratio[16] 	1
scalar tree_4_3_u10_r5_network.node[17].core_layer 	interests[17] 	14525
scalar tree_4_3_u10_r5_network.node[17].core_layer 	data[17] 	10158
scalar tree_4_3_u10_r5_network.node[17].content_store 	p_hit[17] 	0.30051635111876
scalar tree_4_3_u10_r5_network.node[17].content_store 	hits[17] 	4365
scalar tree_4_3_u10_r5_network.node[17].content_store 	misses[17] 	10160
scalar tree_4_3_u10_r5_network.node[17].content_store 	decision_yes[17] 	10158
scalar tree_4_3_u10_r5_network.node[17].content_store 	decision_no[17] 	0
scalar tree_4_3_u10_r5_network.node[17].content_store 	decision_ratio[17] 	1
scalar tree_4_3_u10_r5_network.node[18].core_layer 	interests[18] 	15472
scalar tree_4_3_u10_r5_network.node[18].core_layer 	data[18] 	10282
scalar tree_4_3_u10_r5_network.node[18].content_store 	p_hit[18] 	0.33544467425026
scalar tree_4_3_u10_r5_network.node[18].content_store 	hits[18] 	5190
scalar tree_4_3_u10_r5_network.node[18].content_store 	misses[18] 	10282
scalar tree_4_3_u10_r5_network.node[18].content_store 	decision_yes[18] 	10282
scalar tree_4_3_u10_r5_network.node[18].content_store 	decision_no[18] 	0
scalar tree_4_3_u10_r5_network.node[18].content_store 	decision_ratio[18] 	1
scalar tree_4_3_u10_r5_network.node[19].core_layer 	interests[19] 	15377
scalar tree_4_3_u10_r5_network.node[19].core_layer 	data[19] 	10182
scalar tree_4_3_u10_r5_network.node[19].content_store 	p_hit[19] 	0.33784223190479
scalar tree_4_3_u10_r5_network.node[19].content_store 	hits[19] 	5195
scalar tree_4_3_u10_r5_network.node[19].content_store 	misses[19] 	10182
scalar tree_4_3_u10_r5_network.node[19].content_store 	decision_yes[19] 	10182
scalar tree_4_3_u10_r5_network.node[19].content_store 	decision_no[19] 	0
scalar tree_4_3_u10_r5_network.node[19].content_store 	decision_ratio[19] 	1
scalar tree_4_3_u10_r5_network.node[20].core_layer 	interests[20] 	15261
scalar tree_4_3_u10_r5_network.node[20].core_layer 	data[20] 	9959
scalar tree_4_3_u10_r5_network.node[20].content_store 	p_hit[20] 	0.34735600550423
scalar tree_4_3_u10_r5_network.node[20].content_store 	hits[20] 	5301
scalar tree_4_3_u10_r5_network.node[20].content_store 	misses[20] 	9960
scalar tree_4_3_u10_r5_network.node[20].content_store 	decision_yes[20] 	9959
scalar tree_4_3_u10_r5_network.node[20].content_store 	decision_no[20] 	0
scalar tree_4_3_u10_r5_network.node[20].content_store 	decision_ratio[20] 	1
scalar tree_4_3_u10_r5_network.node[21].core_layer 	interests[21] 	14423
scalar tree_4_3_u10_r5_network.node[21].core_layer 	data[21] 	10161
scalar tree_4_3_u10_r5_network.node[21].content_store 	p_hit[21] 	0.29550024266796
scalar tree_4_3_u10_r5_network.node[21].content_store 	hits[21] 	4262
scalar tree_4_3_u10_r5_network.node[21].content_store 	misses[21] 	10161
scalar tree_4_3_u10_r5_network.node[21].content_store 	decision_yes[21] 	10161
scalar tree_4_3_u10_r5_network.node[21].content_store 	decision_no[21] 	0
scalar tree_4_3_u10_r5_network.node[21].content_store 	decision_ratio[21] 	1
scalar tree_4_3_u10_r5_network.node[22].core_layer 	interests[22] 	14251
scalar tree_4_3_u10_r5_network.node[22].core_layer 	data[22] 	9993
scalar tree_4_3_u10_r5_network.node[22].content_store 	p_hit[22] 	0.2987158795874
scalar tree_4_3_u10_r5_network.node[22].content_store 	hits[22] 	4257
scalar tree_4_3_u10_r5_network.node[22].content_store 	misses[22] 	9994
scalar tree_4_3_u10_r5_network.node[22].content_store 	decision_yes[22] 	9993
scalar tree_4_3_u10_r5_network.node[22].content_store 	decision_no[22] 	0
scalar tree_4_3_u10_r5_network.node[22].content_store 	decision_ratio[22] 	1
scalar tree_4_3_u10_r5_network.node[23].core_layer 	interests[23] 	15204
scalar tree_4_3_u10_r5_network.node[23].core_layer 	data[23] 	10149
scalar tree_4_3_u10_r5_network.node[23].content_store 	p_hit[23] 	0.33241252302026
scalar tree_4_3_u10_r5_network.node[23].content_store 	hits[23] 	5054
scalar tree_4_3_u10_r5_network.node[23].content_store 	misses[23] 	10150
scalar tree_4_3_u10_r5_network.node[23].content_store 	decision_yes[23] 	10149
scalar tree_4_3_u10_r5_network.node[23].content_store 	decision_no[23] 	0
scalar tree_4_3_u10_r5_network.node[23].content_store 	decision_ratio[23] 	1
scalar tree_4_3_u10_r5_network.node[24].core_layer 	interests[24] 	15174
scalar tree_4_3_u10_r5_network.node[24].core_layer 	data[24] 	9989
scalar tree_4_3_u10_r5_network.node[24].content_store 	p_hit[24] 	0.34163701067616
scalar tree_4_3_u10_r5_network.node[24].content_store 	hits[24] 	5184
scalar tree_4_3_u10_r5_network.node[24].content_store 	misses[24] 	9990
scalar tree_4_3_u10_r5_network.node[24].content_store 	decision_yes[24] 	9989
scalar tree_4_3_u10_r5_network.node[24].content_store 	decision_no[24] 	0
scalar tree_4_3_u10_r5_network.node[24].content_store 	decision_ratio[24] 	1
scalar tree_4_3_u10_r5_network.node[25].core_layer 	interests[25] 	15138
scalar tree_4_3_u10_r5_network.node[25].core_layer 	data[25] 	10121
scalar tree_4_3_u10_r5_network.node[25].content_store 	p_hit[25] 	0.33128550667195
scalar tree_4_3_u10_r5_network.node[25].content_store 	hits[25] 	5015
scalar tree_4_3_u10_r5_network.node[25].content_store 	misses[25] 	10123
scalar tree_4_3_u10_r5_network.node[25].content_store 	decision_yes[25] 	10121
scalar tree_4_3_u10_r5_network.node[25].content_store 	decision_no[25] 	0
scalar tree_4_3_u10_r5_network.node[25].content_store 	decision_ratio[25] 	1
scalar tree_4_3_u10_r5_network.node[26].core_layer 	interests[26] 	13842
scalar tree_4_3_u10_r5_network.node[26].core_layer 	data[26] 	10069
scalar tree_4_3_u10_r5_network.node[26].content_store 	p_hit[26] 	0.27243172951886
scalar tree_4_3_u10_r5_network.node[26].content_store 	hits[26] 	3771
scalar tree_4_3_u10_r5_network.node[26].content_store 	misses[26] 	10071
scalar tree_4_3_u10_r5_network.node[26].content_store 	decision_yes[26] 	10069
scalar tree_4_3_u10_r5_network.node[26].content_store 	decision_no[26] 	0
scalar tree_4_3_u10_r5_network.node[26].content_store 	decision_ratio[26] 	1
scalar tree_4_3_u10_r5_network.node[27].core_layer 	interests[27] 	15115
scalar tree_4_3_u10_r5_network.node[27].core_layer 	data[27] 	9954
scalar tree_4_3_u10_r5_network.node[27].content_store 	p_hit[27] 	0.34144889182931
scalar tree_4_3_u10_r5_network.node[27].content_store 	hits[27] 	5161
scalar tree_4_3_u10_r5_network.node[27].content_store 	misses[27] 	9954
scalar tree_4_3_u10_r5_network.node[27].content_store 	decision_yes[27] 	9954
scalar tree_4_3_u10_r5_network.node[27].content_store 	decision_no[27] 	0
scalar tree_4_3_u10_r5_network.node[27].content_store 	decision_ratio[27] 	1
scalar tree_4_3_u10_r5_network.node[28].core_layer 	interests[28] 	15441
scalar tree_4_3_u10_r5_network.node[28].core_layer 	data[28] 	10010
scalar tree_4_3_u10_r5_network.node[28].content_store 	p_hit[28] 	0.35159639919694
scalar tree_4_3_u10_r5_network.node[28].content_store 	hits[28] 	5429
scalar tree_4_3_u10_r5_network.node[28].content_store 	misses[28] 	10012
scalar tree_4_3_u10_r5_network.node[28].content_store 	decision_yes[28] 	10010
scalar tree_4_3_u10_r5_network.node[28].content_store 	decision_no[28] 	0
scalar tree_4_3_u10_r5_network.node[28].content_store 	decision_ratio[28] 	1
scalar tree_4_3_u10_r5_network.node[29].core_layer 	interests[29] 	14973
scalar tree_4_3_u10_r5_network.node[29].core_layer 	data[29] 	9890
scalar tree_4_3_u10_r5_network.node[29].content_store 	p_hit[29] 	0.3394777265745
scalar tree_4_3_u10_r5_network.node[29].content_store 	hits[29] 	5083
scalar tree_4_3_u10_r5_network.node[29].content_store 	misses[29] 	9890
scalar tree_4_3_u10_r5_network.node[29].content_store 	decision_yes[29] 	9890
scalar tree_4_3_u10_r5_network.node[29].content_store 	decision_no[29] 	0
scalar tree_4_3_u10_r5_network.node[29].content_store 	decision_ratio[29] 	1
scalar tree_4_3_u10_r5_network.node[30].core_layer 	interests[30] 	14173
scalar tree_4_3_u10_r5_network.node[30].core_layer 	data[30] 	10056
scalar tree_4_3_u10_r5_network.node[30].content_store 	p_hit[30] 	0.29048190220842
scalar tree_4_3_u10_r5_network.node[30].content_store 	hits[30] 	4117
scalar tree_4_3_u10_r5_network.node[30].content_store 	misses[30] 	10056
scalar tree_4_3_u10_r5_network.node[30].content_store 	decision_yes[30] 	10056
scalar tree_4_3_u10_r5_network.node[30].content_store 	decision_no[30] 	0
scalar tree_4_3_u10_r5_network.node[30].content_store 	decision_ratio[30] 	1
scalar tree_4_3_u10_r5_network.node[31].core_layer 	interests[31] 	14321
scalar tree_4_3_u10_r5_network.node[31].core_layer 	data[31] 	10173
scalar tree_4_3_u10_r5_network.node[31].content_store 	p_hit[31] 	0.28964457789261
scalar tree_4_3_u10_r5_network.node[31].content_store 	hits[31] 	4148
scalar tree_4_3_u10_r5_network.node[31].content_store 	misses[31] 	10173
scalar tree_4_3_u10_r5_network.node[31].content_store 	decision_yes[31] 	10173
scalar tree_4_3_u10_r5_network.node[31].content_store 	decision_no[31] 	0
scalar tree_4_3_u10_r5_network.node[31].content_store 	decision_ratio[31] 	1
scalar tree_4_3_u10_r5_network.node[32].core_layer 	interests[32] 	15169
scalar tree_4_3_u10_r5_network.node[32].core_layer 	data[32] 	10044
scalar tree_4_3_u10_r5_network.node[32].content_store 	p_hit[32] 	0.33792603335751
scalar tree_4_3_u10_r5_network.node[32].content_store 	hits[32] 	5126
scalar tree_4_3_u10_r5_network.node[32].content_store 	misses[32] 	10043
scalar tree_4_3_u10_r5_network.node[32].content_store 	decision_yes[32] 	10044
scalar tree_4_3_u10_r5_network.node[32].content_store 	decision_no[32] 	0
scalar tree_4_3_u10_r5_network.node[32].content_store 	decision_ratio[32] 	1
scalar tree_4_3_u10_r5_network.node[33].core_layer 	interests[33] 	15246
scalar tree_4_3_u10_r5_network.node[33].core_layer 	data[33] 	10024
scalar tree_4_3_u10_r5_network.node[33].content_store 	p_hit[33] 	0.3425160697888
scalar tree_4_3_u10_r5_network.node[33].content_store 	hits[33] 	5222
scalar tree_4_3_u10_r5_network.node[33].content_store 	misses[33] 	10024
scalar tree_4_3_u10_r5_network.node[33].content_store 	decision_yes[33] 	10024
scalar tree_4_3_u10_r5_network.node[33].content_store 	decision_no[33] 	0
scalar tree_4_3_u10_r5_network.node[33].content_store 	decision_ratio[33] 	1
scalar tree_4_3_u10_r5_network.node[34].core_layer 	interests[34] 	15058
scalar tree_4_3_u10_r5_network.node[34].core_layer 	data[34] 	9976
scalar tree_4_3_u10_r5_network.node[34].content_store 	p_hit[34] 	0.33749501925887
scalar tree_4_3_u10_r5_network.node[34].content_store 	hits[34] 	5082
scalar tree_4_3_u10_r5_network.node[34].content_store 	misses[34] 	9976
scalar tree_4_3_u10_r5_network.node[34].content_store 	decision_yes[34] 	9976
scalar tree_4_3_u10_r5_network.node[34].content_store 	decision_no[34] 	0
scalar tree_4_3_u10_r5_network.node[34].content_store 	decision_ratio[34] 	1
scalar tree_4_3_u10_r5_network.node[35].core_layer 	interests[35] 	14449
scalar tree_4_3_u10_r5_network.node[35].core_layer 	data[35] 	10100
scalar tree_4_3_u10_r5_network.node[35].content_store 	p_hit[35] 	0.30098968786767
scalar tree_4_3_u10_r5_network.node[35].content_store 	hits[35] 	4349
scalar tree_4_3_u10_r5_network.node[35].content_store 	misses[35] 	10100
scalar tree_4_3_u10_r5_network.node[35].content_store 	decision_yes[35] 	10100
scalar tree_4_3_u10_r5_network.node[35].content_store 	decision_no[35] 	0
scalar tree_4_3_u10_r5_network.node[35].content_store 	decision_ratio[35] 	1
scalar tree_4_3_u10_r5_network.node[36].core_layer 	interests[36] 	15106
scalar tree_4_3_u10_r5_network.node[36].core_layer 	data[36] 	9879
scalar tree_4_3_u10_r5_network.node[36].content_store 	p_hit[36] 	0.34602144843109
scalar tree_4_3_u10_r5_network.node[36].content_store 	hits[36] 	5227
scalar tree_4_3_u10_r5_network.node[36].content_store 	misses[36] 	9879
scalar tree_4_3_u10_r5_network.node[36].content_store 	decision_yes[36] 	9879
scalar tree_4_3_u10_r5_network.node[36].content_store 	decision_no[36] 	0
scalar tree_4_3_u10_r5_network.node[36].content_store 	decision_ratio[36] 	1
scalar tree_4_3_u10_r5_network.node[37].core_layer 	interests[37] 	15029
scalar tree_4_3_u10_r5_network.node[37].core_layer 	data[37] 	10064
scalar tree_4_3_u10_r5_network.node[37].content_store 	p_hit[37] 	0.33029476345732
scalar tree_4_3_u10_r5_network.node[37].content_store 	hits[37] 	4964
scalar tree_4_3_u10_r5_network.node[37].content_store 	misses[37] 	10065
scalar tree_4_3_u10_r5_network.node[37].content_store 	decision_yes[37] 	10064
scalar tree_4_3_u10_r5_network.node[37].content_store 	decision_no[37] 	0
scalar tree_4_3_u10_r5_network.node[37].content_store 	decision_ratio[37] 	1
scalar tree_4_3_u10_r5_network.node[38].core_layer 	interests[38] 	15035
scalar tree_4_3_u10_r5_network.node[38].core_layer 	data[38] 	9920
scalar tree_4_3_u10_r5_network.node[38].content_store 	p_hit[38] 	0.34013967409378
scalar tree_4_3_u10_r5_network.node[38].content_store 	hits[38] 	5114
scalar tree_4_3_u10_r5_network.node[38].content_store 	misses[38] 	9921
scalar tree_4_3_u10_r5_network.node[38].content_store 	decision_yes[38] 	9920
scalar tree_4_3_u10_r5_network.node[38].content_store 	decision_no[38] 	0
scalar tree_4_3_u10_r5_network.node[38].content_store 	decision_ratio[38] 	1
scalar tree_4_3_u10_r5_network.node[39].core_layer 	interests[39] 	13721
scalar tree_4_3_u10_r5_network.node[39].core_layer 	data[39] 	9964
scalar tree_4_3_u10_r5_network.node[39].content_store 	p_hit[39] 	0.27381386196341
scalar tree_4_3_u10_r5_network.node[39].content_store 	hits[39] 	3757
scalar tree_4_3_u10_r5_network.node[39].content_store 	misses[39] 	9964
scalar tree_4_3_u10_r5_network.node[39].content_store 	decision_yes[39] 	9964
scalar tree_4_3_u10_r5_network.node[39].content_store 	decision_no[39] 	0
scalar tree_4_3_u10_r5_network.node[39].content_store 	decision_ratio[39] 	1
scalar tree_4_3_u10_r5_network.client[13] 	hdistance[13] 	3.125762513579
scalar tree_4_3_u10_r5_network.client[13] 	downloads[13] 	11967
scalar tree_4_3_u10_r5_network.client[13] 	avg_time[13] 	0.005006715068
scalar tree_4_3_u10_r5_network.client[14] 	hdistance[14] 	3.0585495675316
scalar tree_4_3_u10_r5_network.client[14] 	downloads[14] 	12024
scalar tree_4_3_u10_r5_network.client[14] 	avg_time[14] 	0.004914688775
scalar tree_4_3_u10_r5_network.client[15] 	hdistance[15] 	3.0389000670691
scalar tree_4_3_u10_r5_network.client[15] 	downloads[15] 	11928
scalar tree_4_3_u10_r5_network.client[15] 	avg_time[15] 	0.004884666993
scalar tree_4_3_u10_r5_network.client[16] 	hdistance[16] 	3.0681122237855
scalar tree_4_3_u10_r5_network.client[16] 	downloads[16] 	12083
scalar tree_4_3_u10_r5_network.client[16] 	avg_time[16] 	0.004935074623
scalar tree_4_3_u10_r5_network.client[17] 	hdistance[17] 	3.1071545782737
scalar tree_4_3_u10_r5_network.client[17] 	downloads[17] 	12188
scalar tree_4_3_u10_r5_network.client[17] 	avg_time[17] 	0.005025501468
scalar tree_4_3_u10_r5_network.client[18] 	hdistance[18] 	3.0670044124857
scalar tree_4_3_u10_r5_network.client[18] 	downloads[18] 	12238
scalar tree_4_3_u10_r5_network.client[18] 	avg_time[18] 	0.004935220027
scalar tree_4_3_u10_r5_network.client[19] 	hdistance[19] 	3.051208048157
scalar tree_4_3_u10_r5_network.client[19] 	downloads[19] 	12127
scalar tree_4_3_u10_r5_network.client[19] 	avg_time[19] 	0.004911962459
scalar tree_4_3_u10_r5_network.client[20] 	hdistance[20] 	3.0372779584689
scalar tree_4_3_u10_r5_network.client[20] 	downloads[20] 	11991
scalar tree_4_3_u10_r5_network.client[20] 	avg_time[20] 	0.004878961231
scalar tree_4_3_u10_r5_network.client[21] 	hdistance[21] 	3.1291628791009
scalar tree_4_3_u10_r5_network.client[21] 	downloads[21] 	12101
scalar tree_4_3_u10_r5_network.client[21] 	avg_time[21] 	0.005060901006
scalar tree_4_3_u10_r5_network.client[22] 	hdistance[22] 	3.1284550113417
scalar tree_4_3_u10_r5_network.client[22] 	downloads[22] 	11903
scalar tree_4_3_u10_r5_network.client[22] 	avg_time[22] 	0.005051066276
scalar tree_4_3_u10_r5_network.client[23] 	hdistance[23] 	3.0619059426399
scalar tree_4_3_u10_r5_network.client[23] 	downloads[23] 	12099
scalar tree_4_3_u10_r5_network.client[23] 	avg_time[23] 	0.004920242002
scalar tree_4_3_u10_r5_network.client[24] 	hdistance[24] 	3.0543624161074
scalar tree_4_3_u10_r5_network.client[24] 	downloads[24] 	11920
scalar tree_4_3_u10_r5_network.client[24] 	avg_time[24] 	0.004923080735
scalar tree_4_3_u10_r5_network.client[25] 	hdistance[25] 	3.0716123143308
scalar tree_4_3_u10_r5_network.client[25] 	downloads[25] 	12051
scalar tree_4_3_u10_r5_network.client[25] 	avg_time[25] 	0.004932163777
scalar tree_4_3_u10_r5_network.client[26] 	hdistance[26] 	3.1322989656323
scalar tree_4_3_u10_r5_network.client[26] 	downloads[26] 	11988
scalar tree_4_3_u10_r5_network.client[26] 	avg_time[26] 	0.005023826335
scalar tree_4_3_u10_r5_network.client[27] 	hdistance[27] 	3.0261797565449
scalar tree_4_3_u10_r5_network.client[27] 	downloads[27] 	11994
scalar tree_4_3_u10_r5_network.client[27] 	avg_time[27] 	0.004873589749
scalar tree_4_3_u10_r5_network.client[28] 	hdistance[28] 	3.0318576748035
scalar tree_4_3_u10_r5_network.client[28] 	downloads[28] 	12085
scalar tree_4_3_u10_r5_network.client[28] 	avg_time[28] 	0.004875015248
scalar tree_4_3_u10_r5_network.client[29] 	hdistance[29] 	3.0533085124386
scalar tree_4_3_u10_r5_network.client[29] 	downloads[29] 	11818
scalar tree_4_3_u10_r5_network.client[29] 	avg_time[29] 	0.004906918694
scalar tree_4_3_u10_r5_network.client[30] 	hdistance[30] 	3.1219389887171
scalar tree_4_3_u10_r5_network.client[30] 	downloads[30] 	11965
scalar tree_4_3_u10_r5_network.client[30] 	avg_time[30] 	0.005058250203
scalar tree_4_3_u10_r5_network.client[31] 	hdistance[31] 	3.1484803188839
scalar tree_4_3_u10_r5_network.client[31] 	downloads[31] 	12042
scalar tree_4_3_u10_r5_network.client[31] 	avg_time[31] 	0.005095771508
scalar tree_4_3_u10_r5_network.client[32] 	hdistance[32] 	3.0632741881486
scalar tree_4_3_u10_r5_network.client[32] 	downloads[32] 	11948
scalar tree_4_3_u10_r5_network.client[32] 	avg_time[32] 	0.004927830025
scalar tree_4_3_u10_r5_network.client[33] 	hdistance[33] 	3.0371110001664
scalar tree_4_3_u10_r5_network.client[33] 	downloads[33] 	12018
scalar tree_4_3_u10_r5_network.client[33] 	avg_time[33] 	0.004896651991
scalar tree_4_3_u10_r5_network.client[34] 	hdistance[34] 	3.069446779889
scalar tree_4_3_u10_r5_network.client[34] 	downloads[34] 	11894
scalar tree_4_3_u10_r5_network.client[34] 	avg_time[34] 	0.004934585888
scalar tree_4_3_u10_r5_network.client[35] 	hdistance[35] 	3.1210940737671
scalar tree_4_3_u10_r5_network.client[35] 	downloads[35] 	12065
scalar tree_4_3_u10_r5_network.client[35] 	avg_time[35] 	0.005049810516
scalar tree_4_3_u10_r5_network.client[36] 	hdistance[36] 	3.007341898882
scalar tree_4_3_u10_r5_network.client[36] 	downloads[36] 	11986
scalar tree_4_3_u10_r5_network.client[36] 	avg_time[36] 	0.004837640938
scalar tree_4_3_u10_r5_network.client[37] 	hdistance[37] 	3.076704307821
scalar tree_4_3_u10_r5_network.client[37] 	downloads[37] 	11955
scalar tree_4_3_u10_r5_network.client[37] 	avg_time[37] 	0.004943851245
scalar tree_4_3_u10_r5_network.client[38] 	hdistance[38] 	3.0515793010753
scalar tree_4_3_u10_r5_network.client[38] 	downloads[38] 	11904
scalar tree_4_3_u10_r5_network.client[38] 	avg_time[38] 	0.004894812074
scalar tree_4_3_u10_r5_network.client[39] 	hdistance[39] 	3.1207461557852
scalar tree_4_3_u10_r5_network.client[39] 	downloads[39] 	11901
scalar tree_4_3_u10_r5_network.client[39] 	avg_time[39] 	0.005002433836
