version 2
run General-219-20160818-20:58:54-19481
attr a 0.9
attr cd lce
attr configname General
attr cr lru
attr datetime 20160818-20:58:54
attr experiment General
attr fsize 1
attr inifile hw5115/scenario_A/EdgeCoop.ini
attr iterationvars "$name=tree_4_3, $un=10, $rep=20, $scenario=Edge, $cd=lce, $cr=lru, $fsize=1, $a=0.9, $sl=nrr, $ttl=1000, $variance=0.05"
attr iterationvars2 "$name=tree_4_3, $un=10, $rep=20, $scenario=Edge, $cd=lce, $cr=lru, $fsize=1, $a=0.9, $sl=nrr, $ttl=1000, $variance=0.05, $repetition=0"
attr measurement "$name=tree_4_3, $un=10, $rep=20, $scenario=Edge, $cd=lce, $cr=lru, $fsize=1, $a=0.9, $sl=nrr, $ttl=1000, $variance=0.05"
attr name tree_4_3
attr network networks.${name}_u${un}_r${rep}_network
attr processid 19481
attr rep 20
attr repetition 0
attr replication #0
attr resultdir results
attr runnumber 219
attr scenario Edge
attr seedset 20
attr sl nrr
attr ttl 1000
attr un 10
attr variance 0.05

scalar . 	a 	0.9
scalar . 	fsize 	1
scalar . 	rep 	20
scalar . 	ttl 	1000
scalar . 	un 	10
scalar . 	variance 	0.05
scalar tree_4_3_u10_r20_network.content_distribution 	repo-0 	0
scalar tree_4_3_u10_r20_network.content_distribution 	client-0 	13
scalar tree_4_3_u10_r20_network.content_distribution 	client-1 	14
scalar tree_4_3_u10_r20_network.content_distribution 	client-2 	15
scalar tree_4_3_u10_r20_network.content_distribution 	client-3 	16
scalar tree_4_3_u10_r20_network.content_distribution 	client-4 	17
scalar tree_4_3_u10_r20_network.content_distribution 	client-5 	18
scalar tree_4_3_u10_r20_network.content_distribution 	client-6 	19
scalar tree_4_3_u10_r20_network.content_distribution 	client-7 	20
scalar tree_4_3_u10_r20_network.content_distribution 	client-8 	21
scalar tree_4_3_u10_r20_network.content_distribution 	client-9 	22
scalar tree_4_3_u10_r20_network.content_distribution 	client-10 	23
scalar tree_4_3_u10_r20_network.content_distribution 	client-11 	24
scalar tree_4_3_u10_r20_network.content_distribution 	client-12 	25
scalar tree_4_3_u10_r20_network.content_distribution 	client-13 	26
scalar tree_4_3_u10_r20_network.content_distribution 	client-14 	27
scalar tree_4_3_u10_r20_network.content_distribution 	client-15 	28
scalar tree_4_3_u10_r20_network.content_distribution 	client-16 	29
scalar tree_4_3_u10_r20_network.content_distribution 	client-17 	30
scalar tree_4_3_u10_r20_network.content_distribution 	client-18 	31
scalar tree_4_3_u10_r20_network.content_distribution 	client-19 	32
scalar tree_4_3_u10_r20_network.content_distribution 	client-20 	33
scalar tree_4_3_u10_r20_network.content_distribution 	client-21 	34
scalar tree_4_3_u10_r20_network.content_distribution 	client-22 	35
scalar tree_4_3_u10_r20_network.content_distribution 	client-23 	36
scalar tree_4_3_u10_r20_network.content_distribution 	client-24 	37
scalar tree_4_3_u10_r20_network.content_distribution 	client-25 	38
scalar tree_4_3_u10_r20_network.content_distribution 	client-26 	39
scalar tree_4_3_u10_r20_network.content_distribution 	repo-0_card 	100000
scalar tree_4_3_u10_r20_network.content_distribution 	repo-0_price 	0
scalar tree_4_3_u10_r20_network.statistics 	stabilization_time 	269.4
scalar tree_4_3_u10_r20_network.statistics 	p_hit 	0.21735488224895
scalar tree_4_3_u10_r20_network.statistics 	interests 	28206.25
scalar tree_4_3_u10_r20_network.statistics 	data 	20096.75
scalar tree_4_3_u10_r20_network.statistics 	hdistance 	3.0783328785602
scalar tree_4_3_u10_r20_network.statistics 	avg_time 	0.004956238259
scalar tree_4_3_u10_r20_network.statistics 	downloads 	324369
scalar tree_4_3_u10_r20_network.statistics 	total_cost 	0
scalar tree_4_3_u10_r20_network.statistics 	total_replicas 	100000
scalar tree_4_3_u10_r20_network.statistics 	inner_hit 	0.39980700991772
scalar tree_4_3_u10_r20_network.node[0].core_layer 	interests[0] 	194684
scalar tree_4_3_u10_r20_network.node[0].core_layer 	repo_load[0] 	194684
scalar tree_4_3_u10_r20_network.node[0].core_layer 	data[0] 	0
scalar tree_4_3_u10_r20_network.node[0].core_layer 	repo_int[0] 	194684
scalar tree_4_3_u10_r20_network.node[0].content_store 	p_hit[0] 	0
scalar tree_4_3_u10_r20_network.node[0].content_store 	hits[0] 	0
scalar tree_4_3_u10_r20_network.node[0].content_store 	misses[0] 	194684
scalar tree_4_3_u10_r20_network.node[0].content_store 	decision_yes[0] 	0
scalar tree_4_3_u10_r20_network.node[0].content_store 	decision_no[0] 	194684
scalar tree_4_3_u10_r20_network.node[0].content_store 	decision_ratio[0] 	0
scalar tree_4_3_u10_r20_network.node[1].core_layer 	interests[1] 	152891
scalar tree_4_3_u10_r20_network.node[1].core_layer 	data[1] 	152887
scalar tree_4_3_u10_r20_network.node[1].content_store 	p_hit[1] 	0
scalar tree_4_3_u10_r20_network.node[1].content_store 	hits[1] 	0
scalar tree_4_3_u10_r20_network.node[1].content_store 	misses[1] 	152891
scalar tree_4_3_u10_r20_network.node[1].content_store 	decision_yes[1] 	0
scalar tree_4_3_u10_r20_network.node[1].content_store 	decision_no[1] 	152876
scalar tree_4_3_u10_r20_network.node[1].content_store 	decision_ratio[1] 	0
scalar tree_4_3_u10_r20_network.node[2].core_layer 	interests[2] 	60418
scalar tree_4_3_u10_r20_network.node[2].core_layer 	data[2] 	60417
scalar tree_4_3_u10_r20_network.node[2].content_store 	p_hit[2] 	0
scalar tree_4_3_u10_r20_network.node[2].content_store 	hits[2] 	0
scalar tree_4_3_u10_r20_network.node[2].content_store 	misses[2] 	60418
scalar tree_4_3_u10_r20_network.node[2].content_store 	decision_yes[2] 	0
scalar tree_4_3_u10_r20_network.node[2].content_store 	decision_no[2] 	60411
scalar tree_4_3_u10_r20_network.node[2].content_store 	decision_ratio[2] 	0
scalar tree_4_3_u10_r20_network.node[3].core_layer 	interests[3] 	14100
scalar tree_4_3_u10_r20_network.node[3].core_layer 	data[3] 	14100
scalar tree_4_3_u10_r20_network.node[3].content_store 	p_hit[3] 	0
scalar tree_4_3_u10_r20_network.node[3].content_store 	hits[3] 	0
scalar tree_4_3_u10_r20_network.node[3].content_store 	misses[3] 	14100
scalar tree_4_3_u10_r20_network.node[3].content_store 	decision_yes[3] 	0
scalar tree_4_3_u10_r20_network.node[3].content_store 	decision_no[3] 	14100
scalar tree_4_3_u10_r20_network.node[3].content_store 	decision_ratio[3] 	0
scalar tree_4_3_u10_r20_network.node[4].core_layer 	interests[4] 	49038
scalar tree_4_3_u10_r20_network.node[4].core_layer 	data[4] 	49034
scalar tree_4_3_u10_r20_network.node[4].content_store 	p_hit[4] 	0
scalar tree_4_3_u10_r20_network.node[4].content_store 	hits[4] 	0
scalar tree_4_3_u10_r20_network.node[4].content_store 	misses[4] 	49038
scalar tree_4_3_u10_r20_network.node[4].content_store 	decision_yes[4] 	0
scalar tree_4_3_u10_r20_network.node[4].content_store 	decision_no[4] 	49031
scalar tree_4_3_u10_r20_network.node[4].content_store 	decision_ratio[4] 	0
scalar tree_4_3_u10_r20_network.node[5].core_layer 	interests[5] 	35754
scalar tree_4_3_u10_r20_network.node[5].core_layer 	data[5] 	35753
scalar tree_4_3_u10_r20_network.node[5].content_store 	p_hit[5] 	0
scalar tree_4_3_u10_r20_network.node[5].content_store 	hits[5] 	0
scalar tree_4_3_u10_r20_network.node[5].content_store 	misses[5] 	35754
scalar tree_4_3_u10_r20_network.node[5].content_store 	decision_yes[5] 	0
scalar tree_4_3_u10_r20_network.node[5].content_store 	decision_no[5] 	35752
scalar tree_4_3_u10_r20_network.node[5].content_store 	decision_ratio[5] 	0
scalar tree_4_3_u10_r20_network.node[6].core_layer 	interests[6] 	16483
scalar tree_4_3_u10_r20_network.node[6].core_layer 	data[6] 	16481
scalar tree_4_3_u10_r20_network.node[6].content_store 	p_hit[6] 	0
scalar tree_4_3_u10_r20_network.node[6].content_store 	hits[6] 	0
scalar tree_4_3_u10_r20_network.node[6].content_store 	misses[6] 	16483
scalar tree_4_3_u10_r20_network.node[6].content_store 	decision_yes[6] 	0
scalar tree_4_3_u10_r20_network.node[6].content_store 	decision_no[6] 	16481
scalar tree_4_3_u10_r20_network.node[6].content_store 	decision_ratio[6] 	0
scalar tree_4_3_u10_r20_network.node[7].core_layer 	interests[7] 	53347
scalar tree_4_3_u10_r20_network.node[7].core_layer 	data[7] 	53342
scalar tree_4_3_u10_r20_network.node[7].content_store 	p_hit[7] 	0
scalar tree_4_3_u10_r20_network.node[7].content_store 	hits[7] 	0
scalar tree_4_3_u10_r20_network.node[7].content_store 	misses[7] 	53347
scalar tree_4_3_u10_r20_network.node[7].content_store 	decision_yes[7] 	0
scalar tree_4_3_u10_r20_network.node[7].content_store 	decision_no[7] 	53339
scalar tree_4_3_u10_r20_network.node[7].content_store 	decision_ratio[7] 	0
scalar tree_4_3_u10_r20_network.node[8].core_layer 	interests[8] 	31284
scalar tree_4_3_u10_r20_network.node[8].core_layer 	data[8] 	31283
scalar tree_4_3_u10_r20_network.node[8].content_store 	p_hit[8] 	0
scalar tree_4_3_u10_r20_network.node[8].content_store 	hits[8] 	0
scalar tree_4_3_u10_r20_network.node[8].content_store 	misses[8] 	31284
scalar tree_4_3_u10_r20_network.node[8].content_store 	decision_yes[8] 	0
scalar tree_4_3_u10_r20_network.node[8].content_store 	decision_no[8] 	31282
scalar tree_4_3_u10_r20_network.node[8].content_store 	decision_ratio[8] 	0
scalar tree_4_3_u10_r20_network.node[9].core_layer 	interests[9] 	16827
scalar tree_4_3_u10_r20_network.node[9].core_layer 	data[9] 	16827
scalar tree_4_3_u10_r20_network.node[9].content_store 	p_hit[9] 	0
scalar tree_4_3_u10_r20_network.node[9].content_store 	hits[9] 	0
scalar tree_4_3_u10_r20_network.node[9].content_store 	misses[9] 	16827
scalar tree_4_3_u10_r20_network.node[9].content_store 	decision_yes[9] 	0
scalar tree_4_3_u10_r20_network.node[9].content_store 	decision_no[9] 	16827
scalar tree_4_3_u10_r20_network.node[9].content_store 	decision_ratio[9] 	0
scalar tree_4_3_u10_r20_network.node[10].core_layer 	interests[10] 	53222
scalar tree_4_3_u10_r20_network.node[10].core_layer 	data[10] 	53220
scalar tree_4_3_u10_r20_network.node[10].content_store 	p_hit[10] 	0
scalar tree_4_3_u10_r20_network.node[10].content_store 	hits[10] 	0
scalar tree_4_3_u10_r20_network.node[10].content_store 	misses[10] 	53222
scalar tree_4_3_u10_r20_network.node[10].content_store 	decision_yes[10] 	0
scalar tree_4_3_u10_r20_network.node[10].content_store 	decision_no[10] 	53208
scalar tree_4_3_u10_r20_network.node[10].content_store 	decision_ratio[10] 	0
scalar tree_4_3_u10_r20_network.node[11].core_layer 	interests[11] 	34644
scalar tree_4_3_u10_r20_network.node[11].core_layer 	data[11] 	34644
scalar tree_4_3_u10_r20_network.node[11].content_store 	p_hit[11] 	0
scalar tree_4_3_u10_r20_network.node[11].content_store 	hits[11] 	0
scalar tree_4_3_u10_r20_network.node[11].content_store 	misses[11] 	34644
scalar tree_4_3_u10_r20_network.node[11].content_store 	decision_yes[11] 	0
scalar tree_4_3_u10_r20_network.node[11].content_store 	decision_no[11] 	34638
scalar tree_4_3_u10_r20_network.node[11].content_store 	decision_ratio[11] 	0
scalar tree_4_3_u10_r20_network.node[12].core_layer 	interests[12] 	14001
scalar tree_4_3_u10_r20_network.node[12].core_layer 	data[12] 	14000
scalar tree_4_3_u10_r20_network.node[12].content_store 	p_hit[12] 	0
scalar tree_4_3_u10_r20_network.node[12].content_store 	hits[12] 	0
scalar tree_4_3_u10_r20_network.node[12].content_store 	misses[12] 	14001
scalar tree_4_3_u10_r20_network.node[12].content_store 	decision_yes[12] 	0
scalar tree_4_3_u10_r20_network.node[12].content_store 	decision_no[12] 	14000
scalar tree_4_3_u10_r20_network.node[12].content_store 	decision_ratio[12] 	0
scalar tree_4_3_u10_r20_network.node[13].core_layer 	interests[13] 	13718
scalar tree_4_3_u10_r20_network.node[13].core_layer 	data[13] 	10046
scalar tree_4_3_u10_r20_network.node[13].content_store 	p_hit[13] 	0.26775040093308
scalar tree_4_3_u10_r20_network.node[13].content_store 	hits[13] 	3673
scalar tree_4_3_u10_r20_network.node[13].content_store 	misses[13] 	10045
scalar tree_4_3_u10_r20_network.node[13].content_store 	decision_yes[13] 	10046
scalar tree_4_3_u10_r20_network.node[13].content_store 	decision_no[13] 	0
scalar tree_4_3_u10_r20_network.node[13].content_store 	decision_ratio[13] 	1
scalar tree_4_3_u10_r20_network.node[14].core_layer 	interests[14] 	15274
scalar tree_4_3_u10_r20_network.node[14].core_layer 	data[14] 	10236
scalar tree_4_3_u10_r20_network.node[14].content_store 	p_hit[14] 	0.32977609008773
scalar tree_4_3_u10_r20_network.node[14].content_store 	hits[14] 	5037
scalar tree_4_3_u10_r20_network.node[14].content_store 	misses[14] 	10237
scalar tree_4_3_u10_r20_network.node[14].content_store 	decision_yes[14] 	10236
scalar tree_4_3_u10_r20_network.node[14].content_store 	decision_no[14] 	0
scalar tree_4_3_u10_r20_network.node[14].content_store 	decision_ratio[14] 	1
scalar tree_4_3_u10_r20_network.node[15].core_layer 	interests[15] 	15012
scalar tree_4_3_u10_r20_network.node[15].core_layer 	data[15] 	9896
scalar tree_4_3_u10_r20_network.node[15].content_store 	p_hit[15] 	0.34079403144151
scalar tree_4_3_u10_r20_network.node[15].content_store 	hits[15] 	5116
scalar tree_4_3_u10_r20_network.node[15].content_store 	misses[15] 	9896
scalar tree_4_3_u10_r20_network.node[15].content_store 	decision_yes[15] 	9896
scalar tree_4_3_u10_r20_network.node[15].content_store 	decision_no[15] 	0
scalar tree_4_3_u10_r20_network.node[15].content_store 	decision_ratio[15] 	1
scalar tree_4_3_u10_r20_network.node[16].core_layer 	interests[16] 	15131
scalar tree_4_3_u10_r20_network.node[16].core_layer 	data[16] 	10060
scalar tree_4_3_u10_r20_network.node[16].content_store 	p_hit[16] 	0.33500760029079
scalar tree_4_3_u10_r20_network.node[16].content_store 	hits[16] 	5069
scalar tree_4_3_u10_r20_network.node[16].content_store 	misses[16] 	10062
scalar tree_4_3_u10_r20_network.node[16].content_store 	decision_yes[16] 	10060
scalar tree_4_3_u10_r20_network.node[16].content_store 	decision_no[16] 	0
scalar tree_4_3_u10_r20_network.node[16].content_store 	decision_ratio[16] 	1
scalar tree_4_3_u10_r20_network.node[17].core_layer 	interests[17] 	14219
scalar tree_4_3_u10_r20_network.node[17].core_layer 	data[17] 	10072
scalar tree_4_3_u10_r20_network.node[17].content_store 	p_hit[17] 	0.29165201490963
scalar tree_4_3_u10_r20_network.node[17].content_store 	hits[17] 	4147
scalar tree_4_3_u10_r20_network.node[17].content_store 	misses[17] 	10072
scalar tree_4_3_u10_r20_network.node[17].content_store 	decision_yes[17] 	10072
scalar tree_4_3_u10_r20_network.node[17].content_store 	decision_no[17] 	0
scalar tree_4_3_u10_r20_network.node[17].content_store 	decision_ratio[17] 	1
scalar tree_4_3_u10_r20_network.node[18].core_layer 	interests[18] 	15190
scalar tree_4_3_u10_r20_network.node[18].core_layer 	data[18] 	10010
scalar tree_4_3_u10_r20_network.node[18].content_store 	p_hit[18] 	0.34107965766952
scalar tree_4_3_u10_r20_network.node[18].content_store 	hits[18] 	5181
scalar tree_4_3_u10_r20_network.node[18].content_store 	misses[18] 	10009
scalar tree_4_3_u10_r20_network.node[18].content_store 	decision_yes[18] 	10010
scalar tree_4_3_u10_r20_network.node[18].content_store 	decision_no[18] 	0
scalar tree_4_3_u10_r20_network.node[18].content_store 	decision_ratio[18] 	1
scalar tree_4_3_u10_r20_network.node[19].core_layer 	interests[19] 	14964
scalar tree_4_3_u10_r20_network.node[19].core_layer 	data[19] 	9952
scalar tree_4_3_u10_r20_network.node[19].content_store 	p_hit[19] 	0.33487035551991
scalar tree_4_3_u10_r20_network.node[19].content_store 	hits[19] 	5011
scalar tree_4_3_u10_r20_network.node[19].content_store 	misses[19] 	9953
scalar tree_4_3_u10_r20_network.node[19].content_store 	decision_yes[19] 	9952
scalar tree_4_3_u10_r20_network.node[19].content_store 	decision_no[19] 	0
scalar tree_4_3_u10_r20_network.node[19].content_store 	decision_ratio[19] 	1
scalar tree_4_3_u10_r20_network.node[20].core_layer 	interests[20] 	15505
scalar tree_4_3_u10_r20_network.node[20].core_layer 	data[20] 	10211
scalar tree_4_3_u10_r20_network.node[20].content_store 	p_hit[20] 	0.3413737504031
scalar tree_4_3_u10_r20_network.node[20].content_store 	hits[20] 	5293
scalar tree_4_3_u10_r20_network.node[20].content_store 	misses[20] 	10212
scalar tree_4_3_u10_r20_network.node[20].content_store 	decision_yes[20] 	10211
scalar tree_4_3_u10_r20_network.node[20].content_store 	decision_no[20] 	0
scalar tree_4_3_u10_r20_network.node[20].content_store 	decision_ratio[20] 	1
scalar tree_4_3_u10_r20_network.node[21].core_layer 	interests[21] 	14376
scalar tree_4_3_u10_r20_network.node[21].core_layer 	data[21] 	10019
scalar tree_4_3_u10_r20_network.node[21].content_store 	p_hit[21] 	0.30307456872565
scalar tree_4_3_u10_r20_network.node[21].content_store 	hits[21] 	4357
scalar tree_4_3_u10_r20_network.node[21].content_store 	misses[21] 	10019
scalar tree_4_3_u10_r20_network.node[21].content_store 	decision_yes[21] 	10019
scalar tree_4_3_u10_r20_network.node[21].content_store 	decision_no[21] 	0
scalar tree_4_3_u10_r20_network.node[21].content_store 	decision_ratio[21] 	1
scalar tree_4_3_u10_r20_network.node[22].core_layer 	interests[22] 	14381
scalar tree_4_3_u10_r20_network.node[22].core_layer 	data[22] 	10108
scalar tree_4_3_u10_r20_network.node[22].content_store 	p_hit[22] 	0.29712815520478
scalar tree_4_3_u10_r20_network.node[22].content_store 	hits[22] 	4273
scalar tree_4_3_u10_r20_network.node[22].content_store 	misses[22] 	10108
scalar tree_4_3_u10_r20_network.node[22].content_store 	decision_yes[22] 	10108
scalar tree_4_3_u10_r20_network.node[22].content_store 	decision_no[22] 	0
scalar tree_4_3_u10_r20_network.node[22].content_store 	decision_ratio[22] 	1
scalar tree_4_3_u10_r20_network.node[23].core_layer 	interests[23] 	15418
scalar tree_4_3_u10_r20_network.node[23].core_layer 	data[23] 	10182
scalar tree_4_3_u10_r20_network.node[23].content_store 	p_hit[23] 	0.33940848359061
scalar tree_4_3_u10_r20_network.node[23].content_store 	hits[23] 	5233
scalar tree_4_3_u10_r20_network.node[23].content_store 	misses[23] 	10185
scalar tree_4_3_u10_r20_network.node[23].content_store 	decision_yes[23] 	10182
scalar tree_4_3_u10_r20_network.node[23].content_store 	decision_no[23] 	0
scalar tree_4_3_u10_r20_network.node[23].content_store 	decision_ratio[23] 	1
scalar tree_4_3_u10_r20_network.node[24].core_layer 	interests[24] 	15215
scalar tree_4_3_u10_r20_network.node[24].core_layer 	data[24] 	10040
scalar tree_4_3_u10_r20_network.node[24].content_store 	p_hit[24] 	0.34012487676635
scalar tree_4_3_u10_r20_network.node[24].content_store 	hits[24] 	5175
scalar tree_4_3_u10_r20_network.node[24].content_store 	misses[24] 	10040
scalar tree_4_3_u10_r20_network.node[24].content_store 	decision_yes[24] 	10040
scalar tree_4_3_u10_r20_network.node[24].content_store 	decision_no[24] 	0
scalar tree_4_3_u10_r20_network.node[24].content_store 	decision_ratio[24] 	1
scalar tree_4_3_u10_r20_network.node[25].core_layer 	interests[25] 	15178
scalar tree_4_3_u10_r20_network.node[25].core_layer 	data[25] 	9802
scalar tree_4_3_u10_r20_network.node[25].content_store 	p_hit[25] 	0.35419686388193
scalar tree_4_3_u10_r20_network.node[25].content_store 	hits[25] 	5376
scalar tree_4_3_u10_r20_network.node[25].content_store 	misses[25] 	9802
scalar tree_4_3_u10_r20_network.node[25].content_store 	decision_yes[25] 	9802
scalar tree_4_3_u10_r20_network.node[25].content_store 	decision_no[25] 	0
scalar tree_4_3_u10_r20_network.node[25].content_store 	decision_ratio[25] 	1
scalar tree_4_3_u10_r20_network.node[26].core_layer 	interests[26] 	13949
scalar tree_4_3_u10_r20_network.node[26].core_layer 	data[26] 	10193
scalar tree_4_3_u10_r20_network.node[26].content_store 	p_hit[26] 	0.2692666140942
scalar tree_4_3_u10_r20_network.node[26].content_store 	hits[26] 	3756
scalar tree_4_3_u10_r20_network.node[26].content_store 	misses[26] 	10193
scalar tree_4_3_u10_r20_network.node[26].content_store 	decision_yes[26] 	10193
scalar tree_4_3_u10_r20_network.node[26].content_store 	decision_no[26] 	0
scalar tree_4_3_u10_r20_network.node[26].content_store 	decision_ratio[26] 	1
scalar tree_4_3_u10_r20_network.node[27].core_layer 	interests[27] 	15104
scalar tree_4_3_u10_r20_network.node[27].core_layer 	data[27] 	9972
scalar tree_4_3_u10_r20_network.node[27].content_store 	p_hit[27] 	0.33971133474576
scalar tree_4_3_u10_r20_network.node[27].content_store 	hits[27] 	5131
scalar tree_4_3_u10_r20_network.node[27].content_store 	misses[27] 	9973
scalar tree_4_3_u10_r20_network.node[27].content_store 	decision_yes[27] 	9972
scalar tree_4_3_u10_r20_network.node[27].content_store 	decision_no[27] 	0
scalar tree_4_3_u10_r20_network.node[27].content_store 	decision_ratio[27] 	1
scalar tree_4_3_u10_r20_network.node[28].core_layer 	interests[28] 	15378
scalar tree_4_3_u10_r20_network.node[28].core_layer 	data[28] 	10242
scalar tree_4_3_u10_r20_network.node[28].content_store 	p_hit[28] 	0.33398361295357
scalar tree_4_3_u10_r20_network.node[28].content_store 	hits[28] 	5136
scalar tree_4_3_u10_r20_network.node[28].content_store 	misses[28] 	10242
scalar tree_4_3_u10_r20_network.node[28].content_store 	decision_yes[28] 	10242
scalar tree_4_3_u10_r20_network.node[28].content_store 	decision_no[28] 	0
scalar tree_4_3_u10_r20_network.node[28].content_store 	decision_ratio[28] 	1
scalar tree_4_3_u10_r20_network.node[29].core_layer 	interests[29] 	15011
scalar tree_4_3_u10_r20_network.node[29].core_layer 	data[29] 	9944
scalar tree_4_3_u10_r20_network.node[29].content_store 	p_hit[29] 	0.33755246152821
scalar tree_4_3_u10_r20_network.node[29].content_store 	hits[29] 	5067
scalar tree_4_3_u10_r20_network.node[29].content_store 	misses[29] 	9944
scalar tree_4_3_u10_r20_network.node[29].content_store 	decision_yes[29] 	9944
scalar tree_4_3_u10_r20_network.node[29].content_store 	decision_no[29] 	0
scalar tree_4_3_u10_r20_network.node[29].content_store 	decision_ratio[29] 	1
scalar tree_4_3_u10_r20_network.node[30].core_layer 	interests[30] 	14190
scalar tree_4_3_u10_r20_network.node[30].core_layer 	data[30] 	9979
scalar tree_4_3_u10_r20_network.node[30].content_store 	p_hit[30] 	0.29668780831572
scalar tree_4_3_u10_r20_network.node[30].content_store 	hits[30] 	4210
scalar tree_4_3_u10_r20_network.node[30].content_store 	misses[30] 	9980
scalar tree_4_3_u10_r20_network.node[30].content_store 	decision_yes[30] 	9979
scalar tree_4_3_u10_r20_network.node[30].content_store 	decision_no[30] 	0
scalar tree_4_3_u10_r20_network.node[30].content_store 	decision_ratio[30] 	1
scalar tree_4_3_u10_r20_network.node[31].core_layer 	interests[31] 	14582
scalar tree_4_3_u10_r20_network.node[31].core_layer 	data[31] 	10360
scalar tree_4_3_u10_r20_network.node[31].content_store 	p_hit[31] 	0.28946646550542
scalar tree_4_3_u10_r20_network.node[31].content_store 	hits[31] 	4221
scalar tree_4_3_u10_r20_network.node[31].content_store 	misses[31] 	10361
scalar tree_4_3_u10_r20_network.node[31].content_store 	decision_yes[31] 	10360
scalar tree_4_3_u10_r20_network.node[31].content_store 	decision_no[31] 	0
scalar tree_4_3_u10_r20_network.node[31].content_store 	decision_ratio[31] 	1
scalar tree_4_3_u10_r20_network.node[32].core_layer 	interests[32] 	15350
scalar tree_4_3_u10_r20_network.node[32].core_layer 	data[32] 	10031
scalar tree_4_3_u10_r20_network.node[32].content_store 	p_hit[32] 	0.34651465798046
scalar tree_4_3_u10_r20_network.node[32].content_store 	hits[32] 	5319
scalar tree_4_3_u10_r20_network.node[32].content_store 	misses[32] 	10031
scalar tree_4_3_u10_r20_network.node[32].content_store 	decision_yes[32] 	10031
scalar tree_4_3_u10_r20_network.node[32].content_store 	decision_no[32] 	0
scalar tree_4_3_u10_r20_network.node[32].content_store 	decision_ratio[32] 	1
scalar tree_4_3_u10_r20_network.node[33].core_layer 	interests[33] 	15055
scalar tree_4_3_u10_r20_network.node[33].core_layer 	data[33] 	9985
scalar tree_4_3_u10_r20_network.node[33].content_store 	p_hit[33] 	0.33663234805712
scalar tree_4_3_u10_r20_network.node[33].content_store 	hits[33] 	5068
scalar tree_4_3_u10_r20_network.node[33].content_store 	misses[33] 	9987
scalar tree_4_3_u10_r20_network.node[33].content_store 	decision_yes[33] 	9985
scalar tree_4_3_u10_r20_network.node[33].content_store 	decision_no[33] 	0
scalar tree_4_3_u10_r20_network.node[33].content_store 	decision_ratio[33] 	1
scalar tree_4_3_u10_r20_network.node[34].core_layer 	interests[34] 	15434
scalar tree_4_3_u10_r20_network.node[34].core_layer 	data[34] 	10077
scalar tree_4_3_u10_r20_network.node[34].content_store 	p_hit[34] 	0.34709083840871
scalar tree_4_3_u10_r20_network.node[34].content_store 	hits[34] 	5357
scalar tree_4_3_u10_r20_network.node[34].content_store 	misses[34] 	10077
scalar tree_4_3_u10_r20_network.node[34].content_store 	decision_yes[34] 	10077
scalar tree_4_3_u10_r20_network.node[34].content_store 	decision_no[34] 	0
scalar tree_4_3_u10_r20_network.node[34].content_store 	decision_ratio[34] 	1
scalar tree_4_3_u10_r20_network.node[35].core_layer 	interests[35] 	14453
scalar tree_4_3_u10_r20_network.node[35].core_layer 	data[35] 	10138
scalar tree_4_3_u10_r20_network.node[35].content_store 	p_hit[35] 	0.29841555386425
scalar tree_4_3_u10_r20_network.node[35].content_store 	hits[35] 	4313
scalar tree_4_3_u10_r20_network.node[35].content_store 	misses[35] 	10140
scalar tree_4_3_u10_r20_network.node[35].content_store 	decision_yes[35] 	10138
scalar tree_4_3_u10_r20_network.node[35].content_store 	decision_no[35] 	0
scalar tree_4_3_u10_r20_network.node[35].content_store 	decision_ratio[35] 	1
scalar tree_4_3_u10_r20_network.node[36].core_layer 	interests[36] 	15214
scalar tree_4_3_u10_r20_network.node[36].core_layer 	data[36] 	10079
scalar tree_4_3_u10_r20_network.node[36].content_store 	p_hit[36] 	0.33751807545682
scalar tree_4_3_u10_r20_network.node[36].content_store 	hits[36] 	5135
scalar tree_4_3_u10_r20_network.node[36].content_store 	misses[36] 	10079
scalar tree_4_3_u10_r20_network.node[36].content_store 	decision_yes[36] 	10079
scalar tree_4_3_u10_r20_network.node[36].content_store 	decision_no[36] 	0
scalar tree_4_3_u10_r20_network.node[36].content_store 	decision_ratio[36] 	1
scalar tree_4_3_u10_r20_network.node[37].core_layer 	interests[37] 	15221
scalar tree_4_3_u10_r20_network.node[37].core_layer 	data[37] 	10066
scalar tree_4_3_u10_r20_network.node[37].content_store 	p_hit[37] 	0.33867682806649
scalar tree_4_3_u10_r20_network.node[37].content_store 	hits[37] 	5155
scalar tree_4_3_u10_r20_network.node[37].content_store 	misses[37] 	10066
scalar tree_4_3_u10_r20_network.node[37].content_store 	decision_yes[37] 	10066
scalar tree_4_3_u10_r20_network.node[37].content_store 	decision_no[37] 	0
scalar tree_4_3_u10_r20_network.node[37].content_store 	decision_ratio[37] 	1
scalar tree_4_3_u10_r20_network.node[38].core_layer 	interests[38] 	15217
scalar tree_4_3_u10_r20_network.node[38].core_layer 	data[38] 	10080
scalar tree_4_3_u10_r20_network.node[38].content_store 	p_hit[38] 	0.33751725044358
scalar tree_4_3_u10_r20_network.node[38].content_store 	hits[38] 	5136
scalar tree_4_3_u10_r20_network.node[38].content_store 	misses[38] 	10081
scalar tree_4_3_u10_r20_network.node[38].content_store 	decision_yes[38] 	10080
scalar tree_4_3_u10_r20_network.node[38].content_store 	decision_no[38] 	0
scalar tree_4_3_u10_r20_network.node[38].content_store 	decision_ratio[38] 	1
scalar tree_4_3_u10_r20_network.node[39].core_layer 	interests[39] 	13818
scalar tree_4_3_u10_r20_network.node[39].core_layer 	data[39] 	10102
scalar tree_4_3_u10_r20_network.node[39].content_store 	p_hit[39] 	0.26892459111304
scalar tree_4_3_u10_r20_network.node[39].content_store 	hits[39] 	3716
scalar tree_4_3_u10_r20_network.node[39].content_store 	misses[39] 	10102
scalar tree_4_3_u10_r20_network.node[39].content_store 	decision_yes[39] 	10102
scalar tree_4_3_u10_r20_network.node[39].content_store 	decision_no[39] 	0
scalar tree_4_3_u10_r20_network.node[39].content_store 	decision_ratio[39] 	1
scalar tree_4_3_u10_r20_network.client[13] 	hdistance[13] 	3.1375209380234
scalar tree_4_3_u10_r20_network.client[13] 	downloads[13] 	11940
scalar tree_4_3_u10_r20_network.client[13] 	avg_time[13] 	0.005022807992
scalar tree_4_3_u10_r20_network.client[14] 	hdistance[14] 	3.0595267338083
scalar tree_4_3_u10_r20_network.client[14] 	downloads[14] 	12213
scalar tree_4_3_u10_r20_network.client[14] 	avg_time[14] 	0.004915901364
scalar tree_4_3_u10_r20_network.client[15] 	hdistance[15] 	3.0541863605672
scalar tree_4_3_u10_r20_network.client[15] 	downloads[15] 	11848
scalar tree_4_3_u10_r20_network.client[15] 	avg_time[15] 	0.00491373773
scalar tree_4_3_u10_r20_network.client[16] 	hdistance[16] 	3.0753785660504
scalar tree_4_3_u10_r20_network.client[16] 	downloads[16] 	11953
scalar tree_4_3_u10_r20_network.client[16] 	avg_time[16] 	0.004958104075
scalar tree_4_3_u10_r20_network.client[17] 	hdistance[17] 	3.1431201874791
scalar tree_4_3_u10_r20_network.client[17] 	downloads[17] 	11948
scalar tree_4_3_u10_r20_network.client[17] 	avg_time[17] 	0.005073898943
scalar tree_4_3_u10_r20_network.client[18] 	hdistance[18] 	3.0602490181332
scalar tree_4_3_u10_r20_network.client[18] 	downloads[18] 	11967
scalar tree_4_3_u10_r20_network.client[18] 	avg_time[18] 	0.004919024333
scalar tree_4_3_u10_r20_network.client[19] 	hdistance[19] 	3.061100824777
scalar tree_4_3_u10_r20_network.client[19] 	downloads[19] 	11882
scalar tree_4_3_u10_r20_network.client[19] 	avg_time[19] 	0.004924332958
scalar tree_4_3_u10_r20_network.client[20] 	hdistance[20] 	3.046357615894
scalar tree_4_3_u10_r20_network.client[20] 	downloads[20] 	12231
scalar tree_4_3_u10_r20_network.client[20] 	avg_time[20] 	0.004903712436
scalar tree_4_3_u10_r20_network.client[21] 	hdistance[21] 	3.0926326293032
scalar tree_4_3_u10_r20_network.client[21] 	downloads[21] 	12026
scalar tree_4_3_u10_r20_network.client[21] 	avg_time[21] 	0.005013309784
scalar tree_4_3_u10_r20_network.client[22] 	hdistance[22] 	3.1108529704613
scalar tree_4_3_u10_r20_network.client[22] 	downloads[22] 	12052
scalar tree_4_3_u10_r20_network.client[22] 	avg_time[22] 	0.005039092705
scalar tree_4_3_u10_r20_network.client[23] 	hdistance[23] 	3.0364425517976
scalar tree_4_3_u10_r20_network.client[23] 	downloads[23] 	12211
scalar tree_4_3_u10_r20_network.client[23] 	avg_time[23] 	0.004900058059
scalar tree_4_3_u10_r20_network.client[24] 	hdistance[24] 	3.0668453677333
scalar tree_4_3_u10_r20_network.client[24] 	downloads[24] 	11938
scalar tree_4_3_u10_r20_network.client[24] 	avg_time[24] 	0.004938676254
scalar tree_4_3_u10_r20_network.client[25] 	hdistance[25] 	3.0278857529153
scalar tree_4_3_u10_r20_network.client[25] 	downloads[25] 	11834
scalar tree_4_3_u10_r20_network.client[25] 	avg_time[25] 	0.004867328429
scalar tree_4_3_u10_r20_network.client[26] 	hdistance[26] 	3.1486924034869
scalar tree_4_3_u10_r20_network.client[26] 	downloads[26] 	12045
scalar tree_4_3_u10_r20_network.client[26] 	avg_time[26] 	0.005045621501
scalar tree_4_3_u10_r20_network.client[27] 	hdistance[27] 	3.0478906315525
scalar tree_4_3_u10_r20_network.client[27] 	downloads[27] 	11923
scalar tree_4_3_u10_r20_network.client[27] 	avg_time[27] 	0.004904310419
scalar tree_4_3_u10_r20_network.client[28] 	hdistance[28] 	3.0693313594868
scalar tree_4_3_u10_r20_network.client[28] 	downloads[28] 	12159
scalar tree_4_3_u10_r20_network.client[28] 	avg_time[28] 	0.00493270194
scalar tree_4_3_u10_r20_network.client[29] 	hdistance[29] 	3.0473457675753
scalar tree_4_3_u10_r20_network.client[29] 	downloads[29] 	11849
scalar tree_4_3_u10_r20_network.client[29] 	avg_time[29] 	0.004911536759
scalar tree_4_3_u10_r20_network.client[30] 	hdistance[30] 	3.1423981058684
scalar tree_4_3_u10_r20_network.client[30] 	downloads[30] 	11826
scalar tree_4_3_u10_r20_network.client[30] 	avg_time[30] 	0.00509411326
scalar tree_4_3_u10_r20_network.client[31] 	hdistance[31] 	3.1517922756593
scalar tree_4_3_u10_r20_network.client[31] 	downloads[31] 	12247
scalar tree_4_3_u10_r20_network.client[31] 	avg_time[31] 	0.005095873806
scalar tree_4_3_u10_r20_network.client[32] 	hdistance[32] 	3.0585774058577
scalar tree_4_3_u10_r20_network.client[32] 	downloads[32] 	11950
scalar tree_4_3_u10_r20_network.client[32] 	avg_time[32] 	0.004921276048
scalar tree_4_3_u10_r20_network.client[33] 	hdistance[33] 	3.0480100544617
scalar tree_4_3_u10_r20_network.client[33] 	downloads[33] 	11935
scalar tree_4_3_u10_r20_network.client[33] 	avg_time[33] 	0.004894304397
scalar tree_4_3_u10_r20_network.client[34] 	hdistance[34] 	3.0477295326483
scalar tree_4_3_u10_r20_network.client[34] 	downloads[34] 	12068
scalar tree_4_3_u10_r20_network.client[34] 	avg_time[34] 	0.004899897548
scalar tree_4_3_u10_r20_network.client[35] 	hdistance[35] 	3.1209136803774
scalar tree_4_3_u10_r20_network.client[35] 	downloads[35] 	12083
scalar tree_4_3_u10_r20_network.client[35] 	avg_time[35] 	0.005039283902
scalar tree_4_3_u10_r20_network.client[36] 	hdistance[36] 	3.0256325723234
scalar tree_4_3_u10_r20_network.client[36] 	downloads[36] 	12133
scalar tree_4_3_u10_r20_network.client[36] 	avg_time[36] 	0.004860599746
scalar tree_4_3_u10_r20_network.client[37] 	hdistance[37] 	3.0589700996678
scalar tree_4_3_u10_r20_network.client[37] 	downloads[37] 	12040
scalar tree_4_3_u10_r20_network.client[37] 	avg_time[37] 	0.004908533895
scalar tree_4_3_u10_r20_network.client[38] 	hdistance[38] 	3.0470578471242
scalar tree_4_3_u10_r20_network.client[38] 	downloads[38] 	12049
scalar tree_4_3_u10_r20_network.client[38] 	avg_time[38] 	0.004899181318
scalar tree_4_3_u10_r20_network.client[39] 	hdistance[39] 	3.1285464680922
scalar tree_4_3_u10_r20_network.client[39] 	downloads[39] 	12019
scalar tree_4_3_u10_r20_network.client[39] 	avg_time[39] 	0.005021213413
