version 2
run General-19-20160823-12:45:11-12979
attr D wfc0.01
attr F nrr
attr R lru
attr a 0.6
attr configname General
attr datetime 20160823-12:45:11
attr experiment General
attr inifile hw5115/scenario_B/bus.ini
attr iterationvars "$net=bus, $rep=0, $a=0.6, $F=nrr, $D=wfc0.01, $R=lru, $window=60, $variance=0.05, $mytime=600, $test=test"
attr iterationvars2 "$net=bus, $rep=0, $a=0.6, $F=nrr, $D=wfc0.01, $R=lru, $window=60, $variance=0.05, $mytime=600, $test=test, $repetition=0"
attr measurement "$net=bus, $rep=0, $a=0.6, $F=nrr, $D=wfc0.01, $R=lru, $window=60, $variance=0.05, $mytime=600, $test=test"
attr mytime 600
attr net bus
attr network networks.${net=bus}_network
attr processid 12979
attr rep 0
attr repetition 0
attr replication #0
attr resultdir results
attr runnumber 19
attr seedset 0
attr test test
attr variance 0.05
attr window 60

scalar . 	a 	0.6
scalar . 	mytime 	600
scalar . 	rep 	0
scalar . 	variance 	0.05
scalar . 	window 	60
scalar bus_network.content_distribution 	repo-0 	9
scalar bus_network.content_distribution 	client-0 	5
scalar bus_network.content_distribution 	client-1 	8
scalar bus_network.content_distribution 	client-2 	9
scalar bus_network.content_distribution 	client-3 	0
scalar bus_network.content_distribution 	client-4 	1
scalar bus_network.content_distribution 	client-5 	7
scalar bus_network.content_distribution 	client-6 	6
scalar bus_network.content_distribution 	client-7 	2
scalar bus_network.content_distribution 	client-8 	4
scalar bus_network.content_distribution 	client-9 	3
scalar bus_network.content_distribution 	repo-0_card 	100000
scalar bus_network.content_distribution 	repo-0_price 	0
scalar bus_network.statistics 	stabilization_time 	1081.4
scalar bus_network.statistics 	p_hit 	0.019071734694352
scalar bus_network.statistics 	interests 	63096.1
scalar bus_network.statistics 	data 	51096.5
scalar bus_network.statistics 	hdistance 	5.1994352759245
scalar bus_network.statistics 	avg_time 	0.008530664683
scalar bus_network.statistics 	downloads 	119992
scalar bus_network.statistics 	total_cost 	0
scalar bus_network.statistics 	total_replicas 	100000
scalar bus_network.statistics 	inner_hit 	0.066004400293353
scalar bus_network.node[0].core_layer 	interests[0] 	12192
scalar bus_network.node[0].core_layer 	data[0] 	11574
scalar bus_network.node[0].core_layer 	repo_int[0] 	112072
scalar bus_network.node[0].content_store 	p_hit[0] 	0.050524934383202
scalar bus_network.node[0].content_store 	hits[0] 	616
scalar bus_network.node[0].content_store 	misses[0] 	11576
scalar bus_network.node[0].content_store 	decision_yes[0] 	134
scalar bus_network.node[0].content_store 	decision_no[0] 	11440
scalar bus_network.node[0].content_store 	decision_ratio[0] 	0.011577674097114
scalar bus_network.node[1].core_layer 	interests[1] 	24069
scalar bus_network.node[1].core_layer 	data[1] 	23198
scalar bus_network.node[1].content_store 	p_hit[1] 	0.036062985583115
scalar bus_network.node[1].content_store 	hits[1] 	868
scalar bus_network.node[1].content_store 	misses[1] 	23201
scalar bus_network.node[1].content_store 	decision_yes[1] 	235
scalar bus_network.node[1].content_store 	decision_no[1] 	22963
scalar bus_network.node[1].content_store 	decision_ratio[1] 	0.01013018363652
scalar bus_network.node[2].core_layer 	interests[2] 	35554
scalar bus_network.node[2].core_layer 	data[2] 	34642
scalar bus_network.node[2].content_store 	p_hit[2] 	0.02556674354503
scalar bus_network.node[2].content_store 	hits[2] 	909
scalar bus_network.node[2].content_store 	misses[2] 	34645
scalar bus_network.node[2].content_store 	decision_yes[2] 	344
scalar bus_network.node[2].content_store 	decision_no[2] 	34298
scalar bus_network.node[2].content_store 	decision_ratio[2] 	0.0099301426014664
scalar bus_network.node[3].core_layer 	interests[3] 	47028
scalar bus_network.node[3].core_layer 	data[3] 	46205
scalar bus_network.node[3].content_store 	p_hit[3] 	0.017478948711406
scalar bus_network.node[3].content_store 	hits[3] 	822
scalar bus_network.node[3].content_store 	misses[3] 	46206
scalar bus_network.node[3].content_store 	decision_yes[3] 	473
scalar bus_network.node[3].content_store 	decision_no[3] 	45732
scalar bus_network.node[3].content_store 	decision_ratio[3] 	0.010236987339033
scalar bus_network.node[4].core_layer 	interests[4] 	58363
scalar bus_network.node[4].core_layer 	data[4] 	57216
scalar bus_network.node[4].content_store 	p_hit[4] 	0.019652862258623
scalar bus_network.node[4].content_store 	hits[4] 	1147
scalar bus_network.node[4].content_store 	misses[4] 	57216
scalar bus_network.node[4].content_store 	decision_yes[4] 	584
scalar bus_network.node[4].content_store 	decision_no[4] 	56632
scalar bus_network.node[4].content_store 	decision_ratio[4] 	0.010206935123043
scalar bus_network.node[5].core_layer 	interests[5] 	69071
scalar bus_network.node[5].core_layer 	data[5] 	68267
scalar bus_network.node[5].content_store 	p_hit[5] 	0.011654674175848
scalar bus_network.node[5].content_store 	hits[5] 	805
scalar bus_network.node[5].content_store 	misses[5] 	68266
scalar bus_network.node[5].content_store 	decision_yes[5] 	654
scalar bus_network.node[5].content_store 	decision_no[5] 	67613
scalar bus_network.node[5].content_store 	decision_ratio[5] 	0.0095800313475032
scalar bus_network.node[6].core_layer 	interests[6] 	79877
scalar bus_network.node[6].core_layer 	data[6] 	78983
scalar bus_network.node[6].content_store 	p_hit[6] 	0.01119220801983
scalar bus_network.node[6].content_store 	hits[6] 	894
scalar bus_network.node[6].content_store 	misses[6] 	78983
scalar bus_network.node[6].content_store 	decision_yes[6] 	829
scalar bus_network.node[6].content_store 	decision_no[6] 	78154
scalar bus_network.node[6].content_store 	decision_ratio[6] 	0.010495929503817
scalar bus_network.node[7].core_layer 	interests[7] 	90680
scalar bus_network.node[7].core_layer 	data[7] 	89907
scalar bus_network.node[7].content_store 	p_hit[7] 	0.0085355094838994
scalar bus_network.node[7].content_store 	hits[7] 	774
scalar bus_network.node[7].content_store 	misses[7] 	89906
scalar bus_network.node[7].content_store 	decision_yes[7] 	909
scalar bus_network.node[7].content_store 	decision_no[7] 	88998
scalar bus_network.node[7].content_store 	decision_ratio[7] 	0.010110447462378
scalar bus_network.node[8].core_layer 	interests[8] 	101437
scalar bus_network.node[8].core_layer 	data[8] 	100973
scalar bus_network.node[8].content_store 	p_hit[8] 	0.0045644094363989
scalar bus_network.node[8].content_store 	hits[8] 	463
scalar bus_network.node[8].content_store 	misses[8] 	100974
scalar bus_network.node[8].content_store 	decision_yes[8] 	1021
scalar bus_network.node[8].content_store 	decision_no[8] 	99952
scalar bus_network.node[8].content_store 	decision_ratio[8] 	0.010111613995821
scalar bus_network.node[9].core_layer 	interests[9] 	112690
scalar bus_network.node[9].core_layer 	repo_load[9] 	112072
scalar bus_network.node[9].core_layer 	data[9] 	0
scalar bus_network.node[9].content_store 	p_hit[9] 	0.0054840713461709
scalar bus_network.node[9].content_store 	hits[9] 	618
scalar bus_network.node[9].content_store 	misses[9] 	112072
scalar bus_network.node[9].content_store 	decision_yes[9] 	1395
scalar bus_network.node[9].content_store 	decision_no[9] 	110677
scalar bus_network.node[9].content_store 	decision_ratio[9] 	0.012447355271611
scalar bus_network.client[0] 	hdistance[0] 	9.4186260563969
scalar bus_network.client[0] 	downloads[0] 	11951
scalar bus_network.client[0] 	avg_time[0] 	0.016994361567
scalar bus_network.client[1] 	hdistance[1] 	8.4366797626014
scalar bus_network.client[1] 	downloads[1] 	11963
scalar bus_network.client[1] 	avg_time[1] 	0.015038532502
scalar bus_network.client[2] 	hdistance[2] 	7.5372983019346
scalar bus_network.client[2] 	downloads[2] 	11837
scalar bus_network.client[2] 	avg_time[2] 	0.01322400111
scalar bus_network.client[3] 	hdistance[3] 	6.5601385909916
scalar bus_network.client[3] 	downloads[3] 	12122
scalar bus_network.client[3] 	avg_time[3] 	0.011284960739
scalar bus_network.client[4] 	hdistance[4] 	5.6378346817917
scalar bus_network.client[4] 	downloads[4] 	11989
scalar bus_network.client[4] 	avg_time[4] 	0.009438315474
scalar bus_network.client[5] 	hdistance[5] 	4.7213743641064
scalar bus_network.client[5] 	downloads[5] 	11991
scalar bus_network.client[5] 	avg_time[5] 	0.007606535247
scalar bus_network.client[6] 	hdistance[6] 	3.8254955627436
scalar bus_network.client[6] 	downloads[6] 	12057
scalar bus_network.client[6] 	avg_time[6] 	0.005797166017
scalar bus_network.client[7] 	hdistance[7] 	2.9018730316592
scalar bus_network.client[7] 	downloads[7] 	12066
scalar bus_network.client[7] 	avg_time[7] 	0.003918114005
scalar bus_network.client[8] 	hdistance[8] 	1.9629444583229
scalar bus_network.client[8] 	downloads[8] 	12009
scalar bus_network.client[8] 	avg_time[8] 	0.002004660176
scalar bus_network.client[9] 	hdistance[9] 	0.99208794869659
scalar bus_network.client[9] 	downloads[9] 	12007
scalar bus_network.client[9] 	avg_time[9] 	0
