version 2
run General-37-20160823-13:04:03-12979
attr D wfc0.1
attr F nrr
attr R lru
attr a 0.8
attr configname General
attr datetime 20160823-13:04:03
attr experiment General
attr inifile hw5115/scenario_B/bus.ini
attr iterationvars "$net=bus, $rep=0, $a=0.8, $F=nrr, $D=wfc0.1, $R=lru, $window=60, $variance=0.05, $mytime=600, $test=test"
attr iterationvars2 "$net=bus, $rep=0, $a=0.8, $F=nrr, $D=wfc0.1, $R=lru, $window=60, $variance=0.05, $mytime=600, $test=test, $repetition=0"
attr measurement "$net=bus, $rep=0, $a=0.8, $F=nrr, $D=wfc0.1, $R=lru, $window=60, $variance=0.05, $mytime=600, $test=test"
attr mytime 600
attr net bus
attr network networks.${net=bus}_network
attr processid 12979
attr rep 0
attr repetition 0
attr replication #0
attr resultdir results
attr runnumber 37
attr seedset 0
attr test test
attr variance 0.05
attr window 60

scalar . 	a 	0.8
scalar . 	mytime 	600
scalar . 	rep 	0
scalar . 	variance 	0.05
scalar . 	window 	60
scalar bus_network.content_distribution 	repo-0 	9
scalar bus_network.content_distribution 	client-0 	5
scalar bus_network.content_distribution 	client-1 	8
scalar bus_network.content_distribution 	client-2 	9
scalar bus_network.content_distribution 	client-3 	0
scalar bus_network.content_distribution 	client-4 	1
scalar bus_network.content_distribution 	client-5 	7
scalar bus_network.content_distribution 	client-6 	6
scalar bus_network.content_distribution 	client-7 	2
scalar bus_network.content_distribution 	client-8 	4
scalar bus_network.content_distribution 	client-9 	3
scalar bus_network.content_distribution 	repo-0_card 	100000
scalar bus_network.content_distribution 	repo-0_price 	0
scalar bus_network.statistics 	stabilization_time 	623.4
scalar bus_network.statistics 	p_hit 	0.054886070237823
scalar bus_network.statistics 	interests 	58204.2
scalar bus_network.statistics 	data 	46191.3
scalar bus_network.statistics 	hdistance 	4.6726324116687
scalar bus_network.statistics 	avg_time 	0.007680245026
scalar bus_network.statistics 	downloads 	120120
scalar bus_network.statistics 	total_cost 	0
scalar bus_network.statistics 	total_replicas 	100000
scalar bus_network.statistics 	inner_hit 	0.16774059274059
scalar bus_network.node[0].core_layer 	interests[0] 	12834
scalar bus_network.node[0].core_layer 	data[0] 	10574
scalar bus_network.node[0].core_layer 	repo_int[0] 	99971
scalar bus_network.node[0].content_store 	p_hit[0] 	0.17609474832476
scalar bus_network.node[0].content_store 	hits[0] 	2260
scalar bus_network.node[0].content_store 	misses[0] 	10574
scalar bus_network.node[0].content_store 	decision_yes[0] 	1075
scalar bus_network.node[0].content_store 	decision_no[0] 	9499
scalar bus_network.node[0].content_store 	decision_ratio[0] 	0.10166445999622
scalar bus_network.node[1].core_layer 	interests[1] 	24234
scalar bus_network.node[1].core_layer 	data[1] 	21736
scalar bus_network.node[1].content_store 	p_hit[1] 	0.1030783197161
scalar bus_network.node[1].content_store 	hits[1] 	2498
scalar bus_network.node[1].content_store 	misses[1] 	21736
scalar bus_network.node[1].content_store 	decision_yes[1] 	2351
scalar bus_network.node[1].content_store 	decision_no[1] 	19385
scalar bus_network.node[1].content_store 	decision_ratio[1] 	0.10816157526684
scalar bus_network.node[2].core_layer 	interests[2] 	34532
scalar bus_network.node[2].core_layer 	data[2] 	32162
scalar bus_network.node[2].content_store 	p_hit[2] 	0.068603034866211
scalar bus_network.node[2].content_store 	hits[2] 	2369
scalar bus_network.node[2].content_store 	misses[2] 	32163
scalar bus_network.node[2].content_store 	decision_yes[2] 	3321
scalar bus_network.node[2].content_store 	decision_no[2] 	28841
scalar bus_network.node[2].content_store 	decision_ratio[2] 	0.10325850382439
scalar bus_network.node[3].core_layer 	interests[3] 	44698
scalar bus_network.node[3].core_layer 	data[3] 	42385
scalar bus_network.node[3].content_store 	p_hit[3] 	0.051724909391919
scalar bus_network.node[3].content_store 	hits[3] 	2312
scalar bus_network.node[3].content_store 	misses[3] 	42386
scalar bus_network.node[3].content_store 	decision_yes[3] 	4322
scalar bus_network.node[3].content_store 	decision_no[3] 	38063
scalar bus_network.node[3].content_store 	decision_ratio[3] 	0.10197003656954
scalar bus_network.node[4].core_layer 	interests[4] 	54610
scalar bus_network.node[4].core_layer 	data[4] 	52356
scalar bus_network.node[4].content_store 	p_hit[4] 	0.041256180186779
scalar bus_network.node[4].content_store 	hits[4] 	2253
scalar bus_network.node[4].content_store 	misses[4] 	52357
scalar bus_network.node[4].content_store 	decision_yes[4] 	5372
scalar bus_network.node[4].content_store 	decision_no[4] 	46984
scalar bus_network.node[4].content_store 	decision_ratio[4] 	0.1026052410421
scalar bus_network.node[5].core_layer 	interests[5] 	63790
scalar bus_network.node[5].core_layer 	data[5] 	61741
scalar bus_network.node[5].content_store 	p_hit[5] 	0.032058316350525
scalar bus_network.node[5].content_store 	hits[5] 	2045
scalar bus_network.node[5].content_store 	misses[5] 	61745
scalar bus_network.node[5].content_store 	decision_yes[5] 	6186
scalar bus_network.node[5].content_store 	decision_no[5] 	55555
scalar bus_network.node[5].content_store 	decision_ratio[5] 	0.10019274064236
scalar bus_network.node[6].core_layer 	interests[6] 	72695
scalar bus_network.node[6].core_layer 	data[6] 	70712
scalar bus_network.node[6].content_store 	p_hit[6] 	0.027237086457115
scalar bus_network.node[6].content_store 	hits[6] 	1980
scalar bus_network.node[6].content_store 	misses[6] 	70715
scalar bus_network.node[6].content_store 	decision_yes[6] 	7156
scalar bus_network.node[6].content_store 	decision_no[6] 	63556
scalar bus_network.node[6].content_store 	decision_ratio[6] 	0.1011992306822
scalar bus_network.node[7].core_layer 	interests[7] 	81818
scalar bus_network.node[7].core_layer 	data[7] 	80205
scalar bus_network.node[7].content_store 	p_hit[7] 	0.019665599256887
scalar bus_network.node[7].content_store 	hits[7] 	1609
scalar bus_network.node[7].content_store 	misses[7] 	80209
scalar bus_network.node[7].content_store 	decision_yes[7] 	8053
scalar bus_network.node[7].content_store 	decision_no[7] 	72152
scalar bus_network.node[7].content_store 	decision_ratio[7] 	0.10040521164516
scalar bus_network.node[8].core_layer 	interests[8] 	91329
scalar bus_network.node[8].core_layer 	data[8] 	90042
scalar bus_network.node[8].content_store 	p_hit[8] 	0.014059061196334
scalar bus_network.node[8].content_store 	hits[8] 	1284
scalar bus_network.node[8].content_store 	misses[8] 	90045
scalar bus_network.node[8].content_store 	decision_yes[8] 	9098
scalar bus_network.node[8].content_store 	decision_no[8] 	80944
scalar bus_network.node[8].content_store 	decision_ratio[8] 	0.10104173607872
scalar bus_network.node[9].core_layer 	interests[9] 	101502
scalar bus_network.node[9].core_layer 	repo_load[9] 	99971
scalar bus_network.node[9].core_layer 	data[9] 	0
scalar bus_network.node[9].content_store 	p_hit[9] 	0.015083446631593
scalar bus_network.node[9].content_store 	hits[9] 	1531
scalar bus_network.node[9].content_store 	misses[9] 	99971
scalar bus_network.node[9].content_store 	decision_yes[9] 	10590
scalar bus_network.node[9].content_store 	decision_no[9] 	89381
scalar bus_network.node[9].content_store 	decision_ratio[9] 	0.10593071990877
scalar bus_network.client[0] 	hdistance[0] 	8.3032780048378
scalar bus_network.client[0] 	downloads[0] 	11989
scalar bus_network.client[0] 	avg_time[0] 	0.015009101162
scalar bus_network.client[1] 	hdistance[1] 	7.4107799101674
scalar bus_network.client[1] 	downloads[1] 	12245
scalar bus_network.client[1] 	avg_time[1] 	0.013233979569
scalar bus_network.client[2] 	hdistance[2] 	6.7083684832124
scalar bus_network.client[2] 	downloads[2] 	11854
scalar bus_network.client[2] 	avg_time[2] 	0.011797533746
scalar bus_network.client[3] 	hdistance[3] 	5.8861369680851
scalar bus_network.client[3] 	downloads[3] 	12032
scalar bus_network.client[3] 	avg_time[3] 	0.010157856889
scalar bus_network.client[4] 	hdistance[4] 	5.0707899269953
scalar bus_network.client[4] 	downloads[4] 	12191
scalar bus_network.client[4] 	avg_time[4] 	0.008537278572
scalar bus_network.client[5] 	hdistance[5] 	4.2968568102445
scalar bus_network.client[5] 	downloads[5] 	12026
scalar bus_network.client[5] 	avg_time[5] 	0.00699422659
scalar bus_network.client[6] 	hdistance[6] 	3.530297901151
scalar bus_network.client[6] 	downloads[6] 	11816
scalar bus_network.client[6] 	avg_time[6] 	0.005412567849
scalar bus_network.client[7] 	hdistance[7] 	2.7081053783352
scalar bus_network.client[7] 	downloads[7] 	11881
scalar bus_network.client[7] 	avg_time[7] 	0.003714218063
scalar bus_network.client[8] 	hdistance[8] 	1.8581836244722
scalar bus_network.client[8] 	downloads[8] 	12079
scalar bus_network.client[8] 	avg_time[8] 	0.001945687826
scalar bus_network.client[9] 	hdistance[9] 	0.95352710918631
scalar bus_network.client[9] 	downloads[9] 	12007
scalar bus_network.client[9] 	avg_time[9] 	0
