version 2
run General-270-20160901-03:07:33-8710
attr a 0.9
attr cd ffc
attr configname General
attr cr lru
attr datetime 20160901-03:07:33
attr experiment General
attr fsize 1
attr inifile hw5115/scenario_Y/omnetp.ini
attr iterationvars "$name=tree_4_3, $un=04, $rep=11, $cd=ffc, $cr=lru, $fsize=1, $a=0.9, $sl=nrr, $ttl=1000, $variance=0.05"
attr iterationvars2 "$name=tree_4_3, $un=04, $rep=11, $cd=ffc, $cr=lru, $fsize=1, $a=0.9, $sl=nrr, $ttl=1000, $variance=0.05, $repetition=0"
attr measurement "$name=tree_4_3, $un=04, $rep=11, $cd=ffc, $cr=lru, $fsize=1, $a=0.9, $sl=nrr, $ttl=1000, $variance=0.05"
attr name tree_4_3
attr network networks.${name}_u${un}_r${rep}_network
attr processid 8710
attr rep 11
attr repetition 0
attr replication #0
attr resultdir results
attr runnumber 270
attr seedset 11
attr sl nrr
attr ttl 1000
attr un 04
attr variance 0.05

scalar . 	a 	0.9
scalar . 	fsize 	1
scalar . 	rep 	11
scalar . 	ttl 	1000
scalar . 	un 	04
scalar . 	variance 	0.05
scalar tree_4_3_u04_r11_network.content_distribution 	repo-0 	0
scalar tree_4_3_u04_r11_network.content_distribution 	client-0 	13
scalar tree_4_3_u04_r11_network.content_distribution 	client-1 	14
scalar tree_4_3_u04_r11_network.content_distribution 	client-2 	15
scalar tree_4_3_u04_r11_network.content_distribution 	client-3 	16
scalar tree_4_3_u04_r11_network.content_distribution 	client-4 	17
scalar tree_4_3_u04_r11_network.content_distribution 	client-5 	18
scalar tree_4_3_u04_r11_network.content_distribution 	client-6 	19
scalar tree_4_3_u04_r11_network.content_distribution 	client-7 	20
scalar tree_4_3_u04_r11_network.content_distribution 	client-8 	21
scalar tree_4_3_u04_r11_network.content_distribution 	client-9 	22
scalar tree_4_3_u04_r11_network.content_distribution 	client-10 	23
scalar tree_4_3_u04_r11_network.content_distribution 	client-11 	24
scalar tree_4_3_u04_r11_network.content_distribution 	client-12 	25
scalar tree_4_3_u04_r11_network.content_distribution 	client-13 	26
scalar tree_4_3_u04_r11_network.content_distribution 	client-14 	27
scalar tree_4_3_u04_r11_network.content_distribution 	client-15 	28
scalar tree_4_3_u04_r11_network.content_distribution 	client-16 	29
scalar tree_4_3_u04_r11_network.content_distribution 	client-17 	30
scalar tree_4_3_u04_r11_network.content_distribution 	client-18 	31
scalar tree_4_3_u04_r11_network.content_distribution 	client-19 	32
scalar tree_4_3_u04_r11_network.content_distribution 	client-20 	33
scalar tree_4_3_u04_r11_network.content_distribution 	client-21 	34
scalar tree_4_3_u04_r11_network.content_distribution 	client-22 	35
scalar tree_4_3_u04_r11_network.content_distribution 	client-23 	36
scalar tree_4_3_u04_r11_network.content_distribution 	client-24 	37
scalar tree_4_3_u04_r11_network.content_distribution 	client-25 	38
scalar tree_4_3_u04_r11_network.content_distribution 	client-26 	39
scalar tree_4_3_u04_r11_network.content_distribution 	repo-0_card 	100000
scalar tree_4_3_u04_r11_network.content_distribution 	repo-0_price 	0
scalar tree_4_3_u04_r11_network.statistics 	stabilization_time 	1161.1
scalar tree_4_3_u04_r11_network.statistics 	p_hit 	0.22891536337875
scalar tree_4_3_u04_r11_network.statistics 	interests 	24787.7
scalar tree_4_3_u04_r11_network.statistics 	data 	16699.825
scalar tree_4_3_u04_r11_network.statistics 	hdistance 	2.6552461924753
scalar tree_4_3_u04_r11_network.statistics 	avg_time 	0.004129698101
scalar tree_4_3_u04_r11_network.statistics 	downloads 	323510
scalar tree_4_3_u04_r11_network.statistics 	total_cost 	0
scalar tree_4_3_u04_r11_network.statistics 	total_replicas 	100000
scalar tree_4_3_u04_r11_network.statistics 	inner_hit 	0.40965657939476
scalar tree_4_3_u04_r11_network.node[0].core_layer 	interests[0] 	193996
scalar tree_4_3_u04_r11_network.node[0].core_layer 	repo_load[0] 	190982
scalar tree_4_3_u04_r11_network.node[0].core_layer 	data[0] 	0
scalar tree_4_3_u04_r11_network.node[0].core_layer 	repo_int[0] 	190982
scalar tree_4_3_u04_r11_network.node[0].content_store 	p_hit[0] 	0.015536402812429
scalar tree_4_3_u04_r11_network.node[0].content_store 	hits[0] 	3014
scalar tree_4_3_u04_r11_network.node[0].content_store 	misses[0] 	190982
scalar tree_4_3_u04_r11_network.node[0].content_store 	decision_yes[0] 	932
scalar tree_4_3_u04_r11_network.node[0].content_store 	decision_no[0] 	190050
scalar tree_4_3_u04_r11_network.node[0].content_store 	decision_ratio[0] 	0.0048800410509891
scalar tree_4_3_u04_r11_network.node[1].core_layer 	interests[1] 	68290
scalar tree_4_3_u04_r11_network.node[1].core_layer 	data[1] 	66903
scalar tree_4_3_u04_r11_network.node[1].content_store 	p_hit[1] 	0.020325084199736
scalar tree_4_3_u04_r11_network.node[1].content_store 	hits[1] 	1388
scalar tree_4_3_u04_r11_network.node[1].content_store 	misses[1] 	66902
scalar tree_4_3_u04_r11_network.node[1].content_store 	decision_yes[1] 	411
scalar tree_4_3_u04_r11_network.node[1].content_store 	decision_no[1] 	66492
scalar tree_4_3_u04_r11_network.node[1].content_store 	decision_ratio[1] 	0.0061432222770279
scalar tree_4_3_u04_r11_network.node[2].core_layer 	interests[2] 	72333
scalar tree_4_3_u04_r11_network.node[2].core_layer 	data[2] 	69911
scalar tree_4_3_u04_r11_network.node[2].content_store 	p_hit[2] 	0.033456375375002
scalar tree_4_3_u04_r11_network.node[2].content_store 	hits[2] 	2420
scalar tree_4_3_u04_r11_network.node[2].content_store 	misses[2] 	69913
scalar tree_4_3_u04_r11_network.node[2].content_store 	decision_yes[2] 	491
scalar tree_4_3_u04_r11_network.node[2].content_store 	decision_no[2] 	69420
scalar tree_4_3_u04_r11_network.node[2].content_store 	decision_ratio[2] 	0.0070232152307934
scalar tree_4_3_u04_r11_network.node[3].core_layer 	interests[3] 	69606
scalar tree_4_3_u04_r11_network.node[3].core_layer 	data[3] 	68038
scalar tree_4_3_u04_r11_network.node[3].content_store 	p_hit[3] 	0.022512427089619
scalar tree_4_3_u04_r11_network.node[3].content_store 	hits[3] 	1567
scalar tree_4_3_u04_r11_network.node[3].content_store 	misses[3] 	68039
scalar tree_4_3_u04_r11_network.node[3].content_store 	decision_yes[3] 	442
scalar tree_4_3_u04_r11_network.node[3].content_store 	decision_no[3] 	67596
scalar tree_4_3_u04_r11_network.node[3].content_store 	decision_ratio[3] 	0.0064963696757694
scalar tree_4_3_u04_r11_network.node[4].core_layer 	interests[4] 	34176
scalar tree_4_3_u04_r11_network.node[4].core_layer 	data[4] 	32033
scalar tree_4_3_u04_r11_network.node[4].content_store 	p_hit[4] 	0.062704822097378
scalar tree_4_3_u04_r11_network.node[4].content_store 	hits[4] 	2143
scalar tree_4_3_u04_r11_network.node[4].content_store 	misses[4] 	32033
scalar tree_4_3_u04_r11_network.node[4].content_store 	decision_yes[4] 	308
scalar tree_4_3_u04_r11_network.node[4].content_store 	decision_no[4] 	31725
scalar tree_4_3_u04_r11_network.node[4].content_store 	decision_ratio[4] 	0.009615084444167
scalar tree_4_3_u04_r11_network.node[5].core_layer 	interests[5] 	21963
scalar tree_4_3_u04_r11_network.node[5].core_layer 	data[5] 	18385
scalar tree_4_3_u04_r11_network.node[5].content_store 	p_hit[5] 	0.16291034922369
scalar tree_4_3_u04_r11_network.node[5].content_store 	hits[5] 	3578
scalar tree_4_3_u04_r11_network.node[5].content_store 	misses[5] 	18385
scalar tree_4_3_u04_r11_network.node[5].content_store 	decision_yes[5] 	323
scalar tree_4_3_u04_r11_network.node[5].content_store 	decision_no[5] 	18062
scalar tree_4_3_u04_r11_network.node[5].content_store 	decision_ratio[5] 	0.017568670111504
scalar tree_4_3_u04_r11_network.node[6].core_layer 	interests[6] 	27489
scalar tree_4_3_u04_r11_network.node[6].core_layer 	data[6] 	25312
scalar tree_4_3_u04_r11_network.node[6].content_store 	p_hit[6] 	0.079195314489432
scalar tree_4_3_u04_r11_network.node[6].content_store 	hits[6] 	2177
scalar tree_4_3_u04_r11_network.node[6].content_store 	misses[6] 	25312
scalar tree_4_3_u04_r11_network.node[6].content_store 	decision_yes[6] 	274
scalar tree_4_3_u04_r11_network.node[6].content_store 	decision_no[6] 	25038
scalar tree_4_3_u04_r11_network.node[6].content_store 	decision_ratio[6] 	0.010824905183312
scalar tree_4_3_u04_r11_network.node[7].core_layer 	interests[7] 	44371
scalar tree_4_3_u04_r11_network.node[7].core_layer 	data[7] 	41515
scalar tree_4_3_u04_r11_network.node[7].content_store 	p_hit[7] 	0.064343828176061
scalar tree_4_3_u04_r11_network.node[7].content_store 	hits[7] 	2855
scalar tree_4_3_u04_r11_network.node[7].content_store 	misses[7] 	41516
scalar tree_4_3_u04_r11_network.node[7].content_store 	decision_yes[7] 	388
scalar tree_4_3_u04_r11_network.node[7].content_store 	decision_no[7] 	41127
scalar tree_4_3_u04_r11_network.node[7].content_store 	decision_ratio[7] 	0.0093460195110201
scalar tree_4_3_u04_r11_network.node[8].core_layer 	interests[8] 	19050
scalar tree_4_3_u04_r11_network.node[8].core_layer 	data[8] 	16965
scalar tree_4_3_u04_r11_network.node[8].content_store 	p_hit[8] 	0.10944881889764
scalar tree_4_3_u04_r11_network.node[8].content_store 	hits[8] 	2085
scalar tree_4_3_u04_r11_network.node[8].content_store 	misses[8] 	16965
scalar tree_4_3_u04_r11_network.node[8].content_store 	decision_yes[8] 	209
scalar tree_4_3_u04_r11_network.node[8].content_store 	decision_no[8] 	16756
scalar tree_4_3_u04_r11_network.node[8].content_store 	decision_ratio[8] 	0.012319481284999
scalar tree_4_3_u04_r11_network.node[9].core_layer 	interests[9] 	19209
scalar tree_4_3_u04_r11_network.node[9].core_layer 	data[9] 	17008
scalar tree_4_3_u04_r11_network.node[9].content_store 	p_hit[9] 	0.11458170649175
scalar tree_4_3_u04_r11_network.node[9].content_store 	hits[9] 	2201
scalar tree_4_3_u04_r11_network.node[9].content_store 	misses[9] 	17008
scalar tree_4_3_u04_r11_network.node[9].content_store 	decision_yes[9] 	164
scalar tree_4_3_u04_r11_network.node[9].content_store 	decision_no[9] 	16844
scalar tree_4_3_u04_r11_network.node[9].content_store 	decision_ratio[9] 	0.0096425211665099
scalar tree_4_3_u04_r11_network.node[10].core_layer 	interests[10] 	34691
scalar tree_4_3_u04_r11_network.node[10].core_layer 	data[10] 	32741
scalar tree_4_3_u04_r11_network.node[10].content_store 	p_hit[10] 	0.056181718601366
scalar tree_4_3_u04_r11_network.node[10].content_store 	hits[10] 	1949
scalar tree_4_3_u04_r11_network.node[10].content_store 	misses[10] 	32742
scalar tree_4_3_u04_r11_network.node[10].content_store 	decision_yes[10] 	265
scalar tree_4_3_u04_r11_network.node[10].content_store 	decision_no[10] 	32476
scalar tree_4_3_u04_r11_network.node[10].content_store 	decision_ratio[10] 	0.0080938273113222
scalar tree_4_3_u04_r11_network.node[11].core_layer 	interests[11] 	35544
scalar tree_4_3_u04_r11_network.node[11].core_layer 	data[11] 	33165
scalar tree_4_3_u04_r11_network.node[11].content_store 	p_hit[11] 	0.066931127616475
scalar tree_4_3_u04_r11_network.node[11].content_store 	hits[11] 	2379
scalar tree_4_3_u04_r11_network.node[11].content_store 	misses[11] 	33165
scalar tree_4_3_u04_r11_network.node[11].content_store 	decision_yes[11] 	307
scalar tree_4_3_u04_r11_network.node[11].content_store 	decision_no[11] 	32858
scalar tree_4_3_u04_r11_network.node[11].content_store 	decision_ratio[11] 	0.0092567465701794
scalar tree_4_3_u04_r11_network.node[12].core_layer 	interests[12] 	11432
scalar tree_4_3_u04_r11_network.node[12].core_layer 	data[12] 	8948
scalar tree_4_3_u04_r11_network.node[12].content_store 	p_hit[12] 	0.21728481455563
scalar tree_4_3_u04_r11_network.node[12].content_store 	hits[12] 	2484
scalar tree_4_3_u04_r11_network.node[12].content_store 	misses[12] 	8948
scalar tree_4_3_u04_r11_network.node[12].content_store 	decision_yes[12] 	133
scalar tree_4_3_u04_r11_network.node[12].content_store 	decision_no[12] 	8815
scalar tree_4_3_u04_r11_network.node[12].content_store 	decision_ratio[12] 	0.014863656683058
scalar tree_4_3_u04_r11_network.node[13].core_layer 	interests[13] 	12398
scalar tree_4_3_u04_r11_network.node[13].core_layer 	data[13] 	8776
scalar tree_4_3_u04_r11_network.node[13].content_store 	p_hit[13] 	0.29214389417648
scalar tree_4_3_u04_r11_network.node[13].content_store 	hits[13] 	3622
scalar tree_4_3_u04_r11_network.node[13].content_store 	misses[13] 	8776
scalar tree_4_3_u04_r11_network.node[13].content_store 	decision_yes[13] 	97
scalar tree_4_3_u04_r11_network.node[13].content_store 	decision_no[13] 	8679
scalar tree_4_3_u04_r11_network.node[13].content_store 	decision_ratio[13] 	0.011052871467639
scalar tree_4_3_u04_r11_network.node[14].core_layer 	interests[14] 	12987
scalar tree_4_3_u04_r11_network.node[14].core_layer 	data[14] 	8789
scalar tree_4_3_u04_r11_network.node[14].content_store 	p_hit[14] 	0.32324632324632
scalar tree_4_3_u04_r11_network.node[14].content_store 	hits[14] 	4198
scalar tree_4_3_u04_r11_network.node[14].content_store 	misses[14] 	8789
scalar tree_4_3_u04_r11_network.node[14].content_store 	decision_yes[14] 	115
scalar tree_4_3_u04_r11_network.node[14].content_store 	decision_no[14] 	8674
scalar tree_4_3_u04_r11_network.node[14].content_store 	decision_ratio[14] 	0.013084537490044
scalar tree_4_3_u04_r11_network.node[15].core_layer 	interests[15] 	12371
scalar tree_4_3_u04_r11_network.node[15].core_layer 	data[15] 	8700
scalar tree_4_3_u04_r11_network.node[15].content_store 	p_hit[15] 	0.2967423813758
scalar tree_4_3_u04_r11_network.node[15].content_store 	hits[15] 	3671
scalar tree_4_3_u04_r11_network.node[15].content_store 	misses[15] 	8700
scalar tree_4_3_u04_r11_network.node[15].content_store 	decision_yes[15] 	105
scalar tree_4_3_u04_r11_network.node[15].content_store 	decision_no[15] 	8595
scalar tree_4_3_u04_r11_network.node[15].content_store 	decision_ratio[15] 	0.012068965517241
scalar tree_4_3_u04_r11_network.node[16].core_layer 	interests[16] 	12993
scalar tree_4_3_u04_r11_network.node[16].core_layer 	data[16] 	8924
scalar tree_4_3_u04_r11_network.node[16].content_store 	p_hit[16] 	0.31316862926191
scalar tree_4_3_u04_r11_network.node[16].content_store 	hits[16] 	4069
scalar tree_4_3_u04_r11_network.node[16].content_store 	misses[16] 	8924
scalar tree_4_3_u04_r11_network.node[16].content_store 	decision_yes[16] 	129
scalar tree_4_3_u04_r11_network.node[16].content_store 	decision_no[16] 	8795
scalar tree_4_3_u04_r11_network.node[16].content_store 	decision_ratio[16] 	0.014455401165397
scalar tree_4_3_u04_r11_network.node[17].core_layer 	interests[17] 	12480
scalar tree_4_3_u04_r11_network.node[17].core_layer 	data[17] 	8843
scalar tree_4_3_u04_r11_network.node[17].content_store 	p_hit[17] 	0.29142628205128
scalar tree_4_3_u04_r11_network.node[17].content_store 	hits[17] 	3637
scalar tree_4_3_u04_r11_network.node[17].content_store 	misses[17] 	8843
scalar tree_4_3_u04_r11_network.node[17].content_store 	decision_yes[17] 	123
scalar tree_4_3_u04_r11_network.node[17].content_store 	decision_no[17] 	8720
scalar tree_4_3_u04_r11_network.node[17].content_store 	decision_ratio[17] 	0.013909306796336
scalar tree_4_3_u04_r11_network.node[18].core_layer 	interests[18] 	13200
scalar tree_4_3_u04_r11_network.node[18].core_layer 	data[18] 	8984
scalar tree_4_3_u04_r11_network.node[18].content_store 	p_hit[18] 	0.31939393939394
scalar tree_4_3_u04_r11_network.node[18].content_store 	hits[18] 	4216
scalar tree_4_3_u04_r11_network.node[18].content_store 	misses[18] 	8984
scalar tree_4_3_u04_r11_network.node[18].content_store 	decision_yes[18] 	126
scalar tree_4_3_u04_r11_network.node[18].content_store 	decision_no[18] 	8858
scalar tree_4_3_u04_r11_network.node[18].content_store 	decision_ratio[18] 	0.014024933214604
scalar tree_4_3_u04_r11_network.node[19].core_layer 	interests[19] 	12435
scalar tree_4_3_u04_r11_network.node[19].core_layer 	data[19] 	8814
scalar tree_4_3_u04_r11_network.node[19].content_store 	p_hit[19] 	0.29119420989144
scalar tree_4_3_u04_r11_network.node[19].content_store 	hits[19] 	3621
scalar tree_4_3_u04_r11_network.node[19].content_store 	misses[19] 	8814
scalar tree_4_3_u04_r11_network.node[19].content_store 	decision_yes[19] 	100
scalar tree_4_3_u04_r11_network.node[19].content_store 	decision_no[19] 	8714
scalar tree_4_3_u04_r11_network.node[19].content_store 	decision_ratio[19] 	0.011345586566826
scalar tree_4_3_u04_r11_network.node[20].core_layer 	interests[20] 	12298
scalar tree_4_3_u04_r11_network.node[20].core_layer 	data[20] 	8783
scalar tree_4_3_u04_r11_network.node[20].content_store 	p_hit[20] 	0.28581883233046
scalar tree_4_3_u04_r11_network.node[20].content_store 	hits[20] 	3515
scalar tree_4_3_u04_r11_network.node[20].content_store 	misses[20] 	8783
scalar tree_4_3_u04_r11_network.node[20].content_store 	decision_yes[20] 	121
scalar tree_4_3_u04_r11_network.node[20].content_store 	decision_no[20] 	8662
scalar tree_4_3_u04_r11_network.node[20].content_store 	decision_ratio[20] 	0.013776613913241
scalar tree_4_3_u04_r11_network.node[21].core_layer 	interests[21] 	12222
scalar tree_4_3_u04_r11_network.node[21].core_layer 	data[21] 	8568
scalar tree_4_3_u04_r11_network.node[21].content_store 	p_hit[21] 	0.2988872524955
scalar tree_4_3_u04_r11_network.node[21].content_store 	hits[21] 	3653
scalar tree_4_3_u04_r11_network.node[21].content_store 	misses[21] 	8569
scalar tree_4_3_u04_r11_network.node[21].content_store 	decision_yes[21] 	112
scalar tree_4_3_u04_r11_network.node[21].content_store 	decision_no[21] 	8456
scalar tree_4_3_u04_r11_network.node[21].content_store 	decision_ratio[21] 	0.013071895424837
scalar tree_4_3_u04_r11_network.node[22].core_layer 	interests[22] 	12542
scalar tree_4_3_u04_r11_network.node[22].core_layer 	data[22] 	8859
scalar tree_4_3_u04_r11_network.node[22].content_store 	p_hit[22] 	0.29365332482858
scalar tree_4_3_u04_r11_network.node[22].content_store 	hits[22] 	3683
scalar tree_4_3_u04_r11_network.node[22].content_store 	misses[22] 	8859
scalar tree_4_3_u04_r11_network.node[22].content_store 	decision_yes[22] 	115
scalar tree_4_3_u04_r11_network.node[22].content_store 	decision_no[22] 	8744
scalar tree_4_3_u04_r11_network.node[22].content_store 	decision_ratio[22] 	0.012981149113895
scalar tree_4_3_u04_r11_network.node[23].core_layer 	interests[23] 	12413
scalar tree_4_3_u04_r11_network.node[23].core_layer 	data[23] 	8671
scalar tree_4_3_u04_r11_network.node[23].content_store 	p_hit[23] 	0.30137758801257
scalar tree_4_3_u04_r11_network.node[23].content_store 	hits[23] 	3741
scalar tree_4_3_u04_r11_network.node[23].content_store 	misses[23] 	8672
scalar tree_4_3_u04_r11_network.node[23].content_store 	decision_yes[23] 	122
scalar tree_4_3_u04_r11_network.node[23].content_store 	decision_no[23] 	8549
scalar tree_4_3_u04_r11_network.node[23].content_store 	decision_ratio[23] 	0.014069888132857
scalar tree_4_3_u04_r11_network.node[24].core_layer 	interests[24] 	12594
scalar tree_4_3_u04_r11_network.node[24].core_layer 	data[24] 	8782
scalar tree_4_3_u04_r11_network.node[24].content_store 	p_hit[24] 	0.30268381769096
scalar tree_4_3_u04_r11_network.node[24].content_store 	hits[24] 	3812
scalar tree_4_3_u04_r11_network.node[24].content_store 	misses[24] 	8782
scalar tree_4_3_u04_r11_network.node[24].content_store 	decision_yes[24] 	120
scalar tree_4_3_u04_r11_network.node[24].content_store 	decision_no[24] 	8662
scalar tree_4_3_u04_r11_network.node[24].content_store 	decision_ratio[24] 	0.013664313368253
scalar tree_4_3_u04_r11_network.node[25].core_layer 	interests[25] 	12985
scalar tree_4_3_u04_r11_network.node[25].core_layer 	data[25] 	8854
scalar tree_4_3_u04_r11_network.node[25].content_store 	p_hit[25] 	0.31813631112822
scalar tree_4_3_u04_r11_network.node[25].content_store 	hits[25] 	4131
scalar tree_4_3_u04_r11_network.node[25].content_store 	misses[25] 	8854
scalar tree_4_3_u04_r11_network.node[25].content_store 	decision_yes[25] 	108
scalar tree_4_3_u04_r11_network.node[25].content_store 	decision_no[25] 	8746
scalar tree_4_3_u04_r11_network.node[25].content_store 	decision_ratio[25] 	0.012197876665914
scalar tree_4_3_u04_r11_network.node[26].core_layer 	interests[26] 	12199
scalar tree_4_3_u04_r11_network.node[26].core_layer 	data[26] 	8605
scalar tree_4_3_u04_r11_network.node[26].content_store 	p_hit[26] 	0.29461431264858
scalar tree_4_3_u04_r11_network.node[26].content_store 	hits[26] 	3594
scalar tree_4_3_u04_r11_network.node[26].content_store 	misses[26] 	8605
scalar tree_4_3_u04_r11_network.node[26].content_store 	decision_yes[26] 	110
scalar tree_4_3_u04_r11_network.node[26].content_store 	decision_no[26] 	8495
scalar tree_4_3_u04_r11_network.node[26].content_store 	decision_ratio[26] 	0.012783265543289
scalar tree_4_3_u04_r11_network.node[27].core_layer 	interests[27] 	12357
scalar tree_4_3_u04_r11_network.node[27].core_layer 	data[27] 	8718
scalar tree_4_3_u04_r11_network.node[27].content_store 	p_hit[27] 	0.29448895362952
scalar tree_4_3_u04_r11_network.node[27].content_store 	hits[27] 	3639
scalar tree_4_3_u04_r11_network.node[27].content_store 	misses[27] 	8718
scalar tree_4_3_u04_r11_network.node[27].content_store 	decision_yes[27] 	104
scalar tree_4_3_u04_r11_network.node[27].content_store 	decision_no[27] 	8614
scalar tree_4_3_u04_r11_network.node[27].content_store 	decision_ratio[27] 	0.011929341592108
scalar tree_4_3_u04_r11_network.node[28].core_layer 	interests[28] 	12957
scalar tree_4_3_u04_r11_network.node[28].core_layer 	data[28] 	8744
scalar tree_4_3_u04_r11_network.node[28].content_store 	p_hit[28] 	0.3251524272594
scalar tree_4_3_u04_r11_network.node[28].content_store 	hits[28] 	4213
scalar tree_4_3_u04_r11_network.node[28].content_store 	misses[28] 	8744
scalar tree_4_3_u04_r11_network.node[28].content_store 	decision_yes[28] 	115
scalar tree_4_3_u04_r11_network.node[28].content_store 	decision_no[28] 	8629
scalar tree_4_3_u04_r11_network.node[28].content_store 	decision_ratio[28] 	0.013151875571821
scalar tree_4_3_u04_r11_network.node[29].core_layer 	interests[29] 	12435
scalar tree_4_3_u04_r11_network.node[29].core_layer 	data[29] 	8742
scalar tree_4_3_u04_r11_network.node[29].content_store 	p_hit[29] 	0.29698431845597
scalar tree_4_3_u04_r11_network.node[29].content_store 	hits[29] 	3693
scalar tree_4_3_u04_r11_network.node[29].content_store 	misses[29] 	8742
scalar tree_4_3_u04_r11_network.node[29].content_store 	decision_yes[29] 	80
scalar tree_4_3_u04_r11_network.node[29].content_store 	decision_no[29] 	8662
scalar tree_4_3_u04_r11_network.node[29].content_store 	decision_ratio[29] 	0.0091512239762068
scalar tree_4_3_u04_r11_network.node[30].core_layer 	interests[30] 	12298
scalar tree_4_3_u04_r11_network.node[30].core_layer 	data[30] 	8680
scalar tree_4_3_u04_r11_network.node[30].content_store 	p_hit[30] 	0.29419417791511
scalar tree_4_3_u04_r11_network.node[30].content_store 	hits[30] 	3618
scalar tree_4_3_u04_r11_network.node[30].content_store 	misses[30] 	8680
scalar tree_4_3_u04_r11_network.node[30].content_store 	decision_yes[30] 	84
scalar tree_4_3_u04_r11_network.node[30].content_store 	decision_no[30] 	8596
scalar tree_4_3_u04_r11_network.node[30].content_store 	decision_ratio[30] 	0.0096774193548387
scalar tree_4_3_u04_r11_network.node[31].core_layer 	interests[31] 	12434
scalar tree_4_3_u04_r11_network.node[31].core_layer 	data[31] 	8753
scalar tree_4_3_u04_r11_network.node[31].content_store 	p_hit[31] 	0.29596268296606
scalar tree_4_3_u04_r11_network.node[31].content_store 	hits[31] 	3680
scalar tree_4_3_u04_r11_network.node[31].content_store 	misses[31] 	8754
scalar tree_4_3_u04_r11_network.node[31].content_store 	decision_yes[31] 	91
scalar tree_4_3_u04_r11_network.node[31].content_store 	decision_no[31] 	8662
scalar tree_4_3_u04_r11_network.node[31].content_store 	decision_ratio[31] 	0.010396435507826
scalar tree_4_3_u04_r11_network.node[32].core_layer 	interests[32] 	12955
scalar tree_4_3_u04_r11_network.node[32].core_layer 	data[32] 	8837
scalar tree_4_3_u04_r11_network.node[32].content_store 	p_hit[32] 	0.3178695484369
scalar tree_4_3_u04_r11_network.node[32].content_store 	hits[32] 	4118
scalar tree_4_3_u04_r11_network.node[32].content_store 	misses[32] 	8837
scalar tree_4_3_u04_r11_network.node[32].content_store 	decision_yes[32] 	111
scalar tree_4_3_u04_r11_network.node[32].content_store 	decision_no[32] 	8726
scalar tree_4_3_u04_r11_network.node[32].content_store 	decision_ratio[32] 	0.012560823808985
scalar tree_4_3_u04_r11_network.node[33].core_layer 	interests[33] 	12456
scalar tree_4_3_u04_r11_network.node[33].core_layer 	data[33] 	8850
scalar tree_4_3_u04_r11_network.node[33].content_store 	p_hit[33] 	0.28941875401413
scalar tree_4_3_u04_r11_network.node[33].content_store 	hits[33] 	3605
scalar tree_4_3_u04_r11_network.node[33].content_store 	misses[33] 	8851
scalar tree_4_3_u04_r11_network.node[33].content_store 	decision_yes[33] 	118
scalar tree_4_3_u04_r11_network.node[33].content_store 	decision_no[33] 	8732
scalar tree_4_3_u04_r11_network.node[33].content_store 	decision_ratio[33] 	0.013333333333333
scalar tree_4_3_u04_r11_network.node[34].core_layer 	interests[34] 	12509
scalar tree_4_3_u04_r11_network.node[34].core_layer 	data[34] 	8780
scalar tree_4_3_u04_r11_network.node[34].content_store 	p_hit[34] 	0.29810536413782
scalar tree_4_3_u04_r11_network.node[34].content_store 	hits[34] 	3729
scalar tree_4_3_u04_r11_network.node[34].content_store 	misses[34] 	8780
scalar tree_4_3_u04_r11_network.node[34].content_store 	decision_yes[34] 	113
scalar tree_4_3_u04_r11_network.node[34].content_store 	decision_no[34] 	8667
scalar tree_4_3_u04_r11_network.node[34].content_store 	decision_ratio[34] 	0.012870159453303
scalar tree_4_3_u04_r11_network.node[35].core_layer 	interests[35] 	12476
scalar tree_4_3_u04_r11_network.node[35].core_layer 	data[35] 	8913
scalar tree_4_3_u04_r11_network.node[35].content_store 	p_hit[35] 	0.28558832959282
scalar tree_4_3_u04_r11_network.node[35].content_store 	hits[35] 	3563
scalar tree_4_3_u04_r11_network.node[35].content_store 	misses[35] 	8913
scalar tree_4_3_u04_r11_network.node[35].content_store 	decision_yes[35] 	119
scalar tree_4_3_u04_r11_network.node[35].content_store 	decision_no[35] 	8794
scalar tree_4_3_u04_r11_network.node[35].content_store 	decision_ratio[35] 	0.013351284640413
scalar tree_4_3_u04_r11_network.node[36].core_layer 	interests[36] 	12643
scalar tree_4_3_u04_r11_network.node[36].core_layer 	data[36] 	8699
scalar tree_4_3_u04_r11_network.node[36].content_store 	p_hit[36] 	0.3119512773867
scalar tree_4_3_u04_r11_network.node[36].content_store 	hits[36] 	3944
scalar tree_4_3_u04_r11_network.node[36].content_store 	misses[36] 	8699
scalar tree_4_3_u04_r11_network.node[36].content_store 	decision_yes[36] 	103
scalar tree_4_3_u04_r11_network.node[36].content_store 	decision_no[36] 	8596
scalar tree_4_3_u04_r11_network.node[36].content_store 	decision_ratio[36] 	0.011840441430049
scalar tree_4_3_u04_r11_network.node[37].core_layer 	interests[37] 	12907
scalar tree_4_3_u04_r11_network.node[37].core_layer 	data[37] 	8827
scalar tree_4_3_u04_r11_network.node[37].content_store 	p_hit[37] 	0.3160300612071
scalar tree_4_3_u04_r11_network.node[37].content_store 	hits[37] 	4079
scalar tree_4_3_u04_r11_network.node[37].content_store 	misses[37] 	8828
scalar tree_4_3_u04_r11_network.node[37].content_store 	decision_yes[37] 	115
scalar tree_4_3_u04_r11_network.node[37].content_store 	decision_no[37] 	8712
scalar tree_4_3_u04_r11_network.node[37].content_store 	decision_ratio[37] 	0.013028208904498
scalar tree_4_3_u04_r11_network.node[38].core_layer 	interests[38] 	12660
scalar tree_4_3_u04_r11_network.node[38].core_layer 	data[38] 	8792
scalar tree_4_3_u04_r11_network.node[38].content_store 	p_hit[38] 	0.30552922590837
scalar tree_4_3_u04_r11_network.node[38].content_store 	hits[38] 	3868
scalar tree_4_3_u04_r11_network.node[38].content_store 	misses[38] 	8792
scalar tree_4_3_u04_r11_network.node[38].content_store 	decision_yes[38] 	115
scalar tree_4_3_u04_r11_network.node[38].content_store 	decision_no[38] 	8677
scalar tree_4_3_u04_r11_network.node[38].content_store 	decision_ratio[38] 	0.013080072793449
scalar tree_4_3_u04_r11_network.node[39].core_layer 	interests[39] 	12154
scalar tree_4_3_u04_r11_network.node[39].core_layer 	data[39] 	8782
scalar tree_4_3_u04_r11_network.node[39].content_store 	p_hit[39] 	0.27743952608195
scalar tree_4_3_u04_r11_network.node[39].content_store 	hits[39] 	3372
scalar tree_4_3_u04_r11_network.node[39].content_store 	misses[39] 	8782
scalar tree_4_3_u04_r11_network.node[39].content_store 	decision_yes[39] 	98
scalar tree_4_3_u04_r11_network.node[39].content_store 	decision_no[39] 	8684
scalar tree_4_3_u04_r11_network.node[39].content_store 	decision_ratio[39] 	0.01115918925074
scalar tree_4_3_u04_r11_network.client[13] 	hdistance[13] 	2.7068216017389
scalar tree_4_3_u04_r11_network.client[13] 	downloads[13] 	11962
scalar tree_4_3_u04_r11_network.client[13] 	avg_time[13] 	0.004201635566
scalar tree_4_3_u04_r11_network.client[14] 	hdistance[14] 	2.5861551292744
scalar tree_4_3_u04_r11_network.client[14] 	downloads[14] 	11990
scalar tree_4_3_u04_r11_network.client[14] 	avg_time[14] 	0.004041698416
scalar tree_4_3_u04_r11_network.client[15] 	hdistance[15] 	2.6732739795061
scalar tree_4_3_u04_r11_network.client[15] 	downloads[15] 	11906
scalar tree_4_3_u04_r11_network.client[15] 	avg_time[15] 	0.004147653648
scalar tree_4_3_u04_r11_network.client[16] 	hdistance[16] 	2.6087423566353
scalar tree_4_3_u04_r11_network.client[16] 	downloads[16] 	12102
scalar tree_4_3_u04_r11_network.client[16] 	avg_time[16] 	0.004074034305
scalar tree_4_3_u04_r11_network.client[17] 	hdistance[17] 	2.6484672742336
scalar tree_4_3_u04_r11_network.client[17] 	downloads[17] 	12070
scalar tree_4_3_u04_r11_network.client[17] 	avg_time[17] 	0.00415774343
scalar tree_4_3_u04_r11_network.client[18] 	hdistance[18] 	2.5980625564403
scalar tree_4_3_u04_r11_network.client[18] 	downloads[18] 	12181
scalar tree_4_3_u04_r11_network.client[18] 	avg_time[18] 	0.004058612835
scalar tree_4_3_u04_r11_network.client[19] 	hdistance[19] 	2.6949562317632
scalar tree_4_3_u04_r11_network.client[19] 	downloads[19] 	11995
scalar tree_4_3_u04_r11_network.client[19] 	avg_time[19] 	0.004188909048
scalar tree_4_3_u04_r11_network.client[20] 	hdistance[20] 	2.7009832759055
scalar tree_4_3_u04_r11_network.client[20] 	downloads[20] 	11899
scalar tree_4_3_u04_r11_network.client[20] 	avg_time[20] 	0.004194131018
scalar tree_4_3_u04_r11_network.client[21] 	hdistance[21] 	2.6673176530526
scalar tree_4_3_u04_r11_network.client[21] 	downloads[21] 	11777
scalar tree_4_3_u04_r11_network.client[21] 	avg_time[21] 	0.004137829236
scalar tree_4_3_u04_r11_network.client[22] 	hdistance[22] 	2.6871457152384
scalar tree_4_3_u04_r11_network.client[22] 	downloads[22] 	11996
scalar tree_4_3_u04_r11_network.client[22] 	avg_time[22] 	0.004187059376
scalar tree_4_3_u04_r11_network.client[23] 	hdistance[23] 	2.6578213470802
scalar tree_4_3_u04_r11_network.client[23] 	downloads[23] 	11833
scalar tree_4_3_u04_r11_network.client[23] 	avg_time[23] 	0.004144877898
scalar tree_4_3_u04_r11_network.client[24] 	hdistance[24] 	2.6551064537591
scalar tree_4_3_u04_r11_network.client[24] 	downloads[24] 	12024
scalar tree_4_3_u04_r11_network.client[24] 	avg_time[24] 	0.004136889873
scalar tree_4_3_u04_r11_network.client[25] 	hdistance[25] 	2.6390333948649
scalar tree_4_3_u04_r11_network.client[25] 	downloads[25] 	11918
scalar tree_4_3_u04_r11_network.client[25] 	avg_time[25] 	0.004103034451
scalar tree_4_3_u04_r11_network.client[26] 	hdistance[26] 	2.6617845117845
scalar tree_4_3_u04_r11_network.client[26] 	downloads[26] 	11880
scalar tree_4_3_u04_r11_network.client[26] 	avg_time[26] 	0.004155355497
scalar tree_4_3_u04_r11_network.client[27] 	hdistance[27] 	2.6734676882079
scalar tree_4_3_u04_r11_network.client[27] 	downloads[27] 	12008
scalar tree_4_3_u04_r11_network.client[27] 	avg_time[27] 	0.004177001833
scalar tree_4_3_u04_r11_network.client[28] 	hdistance[28] 	2.6027752236061
scalar tree_4_3_u04_r11_network.client[28] 	downloads[28] 	11963
scalar tree_4_3_u04_r11_network.client[28] 	avg_time[28] 	0.004042795633
scalar tree_4_3_u04_r11_network.client[29] 	hdistance[29] 	2.6525080571854
scalar tree_4_3_u04_r11_network.client[29] 	downloads[29] 	12101
scalar tree_4_3_u04_r11_network.client[29] 	avg_time[29] 	0.004142629844
scalar tree_4_3_u04_r11_network.client[30] 	hdistance[30] 	2.6692301262225
scalar tree_4_3_u04_r11_network.client[30] 	downloads[30] 	11963
scalar tree_4_3_u04_r11_network.client[30] 	avg_time[30] 	0.004170355605
scalar tree_4_3_u04_r11_network.client[31] 	hdistance[31] 	2.6774651415212
scalar tree_4_3_u04_r11_network.client[31] 	downloads[31] 	11977
scalar tree_4_3_u04_r11_network.client[31] 	avg_time[31] 	0.004159978026
scalar tree_4_3_u04_r11_network.client[32] 	hdistance[32] 	2.6422316737553
scalar tree_4_3_u04_r11_network.client[32] 	downloads[32] 	11991
scalar tree_4_3_u04_r11_network.client[32] 	avg_time[32] 	0.00407872269
scalar tree_4_3_u04_r11_network.client[33] 	hdistance[33] 	2.6836405720426
scalar tree_4_3_u04_r11_network.client[33] 	downloads[33] 	12097
scalar tree_4_3_u04_r11_network.client[33] 	avg_time[33] 	0.004169278907
scalar tree_4_3_u04_r11_network.client[34] 	hdistance[34] 	2.6657230871701
scalar tree_4_3_u04_r11_network.client[34] 	downloads[34] 	12011
scalar tree_4_3_u04_r11_network.client[34] 	avg_time[34] 	0.004137204536
scalar tree_4_3_u04_r11_network.client[35] 	hdistance[35] 	2.6988952570811
scalar tree_4_3_u04_r11_network.client[35] 	downloads[35] 	12039
scalar tree_4_3_u04_r11_network.client[35] 	avg_time[35] 	0.004195195938
scalar tree_4_3_u04_r11_network.client[36] 	hdistance[36] 	2.6026167910761
scalar tree_4_3_u04_r11_network.client[36] 	downloads[36] 	11923
scalar tree_4_3_u04_r11_network.client[36] 	avg_time[36] 	0.004021300335
scalar tree_4_3_u04_r11_network.client[37] 	hdistance[37] 	2.6013446215139
scalar tree_4_3_u04_r11_network.client[37] 	downloads[37] 	12048
scalar tree_4_3_u04_r11_network.client[37] 	avg_time[37] 	0.004021079304
scalar tree_4_3_u04_r11_network.client[38] 	hdistance[38] 	2.6393732625727
scalar tree_4_3_u04_r11_network.client[38] 	downloads[38] 	11871
scalar tree_4_3_u04_r11_network.client[38] 	avg_time[38] 	0.004072947914
scalar tree_4_3_u04_r11_network.client[39] 	hdistance[39] 	2.6967042136003
scalar tree_4_3_u04_r11_network.client[39] 	downloads[39] 	11985
scalar tree_4_3_u04_r11_network.client[39] 	avg_time[39] 	0.004183893585
