version 2
run General-294-20160901-03:58:44-8710
attr a 0.9
attr cd ffc
attr configname General
attr cr lru
attr datetime 20160901-03:58:44
attr experiment General
attr fsize 1
attr inifile hw5115/scenario_Y/omnetp.ini
attr iterationvars "$name=tree_4_3, $un=04, $rep=19, $cd=ffc, $cr=lru, $fsize=1, $a=0.9, $sl=nrr, $ttl=1000, $variance=0.05"
attr iterationvars2 "$name=tree_4_3, $un=04, $rep=19, $cd=ffc, $cr=lru, $fsize=1, $a=0.9, $sl=nrr, $ttl=1000, $variance=0.05, $repetition=0"
attr measurement "$name=tree_4_3, $un=04, $rep=19, $cd=ffc, $cr=lru, $fsize=1, $a=0.9, $sl=nrr, $ttl=1000, $variance=0.05"
attr name tree_4_3
attr network networks.${name}_u${un}_r${rep}_network
attr processid 8710
attr rep 19
attr repetition 0
attr replication #0
attr resultdir results
attr runnumber 294
attr seedset 19
attr sl nrr
attr ttl 1000
attr un 04
attr variance 0.05

scalar . 	a 	0.9
scalar . 	fsize 	1
scalar . 	rep 	19
scalar . 	ttl 	1000
scalar . 	un 	04
scalar . 	variance 	0.05
scalar tree_4_3_u04_r19_network.content_distribution 	repo-0 	0
scalar tree_4_3_u04_r19_network.content_distribution 	client-0 	13
scalar tree_4_3_u04_r19_network.content_distribution 	client-1 	14
scalar tree_4_3_u04_r19_network.content_distribution 	client-2 	15
scalar tree_4_3_u04_r19_network.content_distribution 	client-3 	16
scalar tree_4_3_u04_r19_network.content_distribution 	client-4 	17
scalar tree_4_3_u04_r19_network.content_distribution 	client-5 	18
scalar tree_4_3_u04_r19_network.content_distribution 	client-6 	19
scalar tree_4_3_u04_r19_network.content_distribution 	client-7 	20
scalar tree_4_3_u04_r19_network.content_distribution 	client-8 	21
scalar tree_4_3_u04_r19_network.content_distribution 	client-9 	22
scalar tree_4_3_u04_r19_network.content_distribution 	client-10 	23
scalar tree_4_3_u04_r19_network.content_distribution 	client-11 	24
scalar tree_4_3_u04_r19_network.content_distribution 	client-12 	25
scalar tree_4_3_u04_r19_network.content_distribution 	client-13 	26
scalar tree_4_3_u04_r19_network.content_distribution 	client-14 	27
scalar tree_4_3_u04_r19_network.content_distribution 	client-15 	28
scalar tree_4_3_u04_r19_network.content_distribution 	client-16 	29
scalar tree_4_3_u04_r19_network.content_distribution 	client-17 	30
scalar tree_4_3_u04_r19_network.content_distribution 	client-18 	31
scalar tree_4_3_u04_r19_network.content_distribution 	client-19 	32
scalar tree_4_3_u04_r19_network.content_distribution 	client-20 	33
scalar tree_4_3_u04_r19_network.content_distribution 	client-21 	34
scalar tree_4_3_u04_r19_network.content_distribution 	client-22 	35
scalar tree_4_3_u04_r19_network.content_distribution 	client-23 	36
scalar tree_4_3_u04_r19_network.content_distribution 	client-24 	37
scalar tree_4_3_u04_r19_network.content_distribution 	client-25 	38
scalar tree_4_3_u04_r19_network.content_distribution 	client-26 	39
scalar tree_4_3_u04_r19_network.content_distribution 	repo-0_card 	100000
scalar tree_4_3_u04_r19_network.content_distribution 	repo-0_price 	0
scalar tree_4_3_u04_r19_network.statistics 	stabilization_time 	1175.4
scalar tree_4_3_u04_r19_network.statistics 	p_hit 	0.22997389671613
scalar tree_4_3_u04_r19_network.statistics 	interests 	24830.125
scalar tree_4_3_u04_r19_network.statistics 	data 	16729.05
scalar tree_4_3_u04_r19_network.statistics 	hdistance 	2.6452441330231
scalar tree_4_3_u04_r19_network.statistics 	avg_time 	0.00413007186
scalar tree_4_3_u04_r19_network.statistics 	downloads 	324041
scalar tree_4_3_u04_r19_network.statistics 	total_cost 	0
scalar tree_4_3_u04_r19_network.statistics 	total_replicas 	100000
scalar tree_4_3_u04_r19_network.statistics 	inner_hit 	0.41981107329011
scalar tree_4_3_u04_r19_network.node[0].core_layer 	interests[0] 	190859
scalar tree_4_3_u04_r19_network.node[0].core_layer 	repo_load[0] 	188005
scalar tree_4_3_u04_r19_network.node[0].core_layer 	data[0] 	0
scalar tree_4_3_u04_r19_network.node[0].core_layer 	repo_int[0] 	188005
scalar tree_4_3_u04_r19_network.node[0].content_store 	p_hit[0] 	0.01495344730927
scalar tree_4_3_u04_r19_network.node[0].content_store 	hits[0] 	2854
scalar tree_4_3_u04_r19_network.node[0].content_store 	misses[0] 	188005
scalar tree_4_3_u04_r19_network.node[0].content_store 	decision_yes[0] 	817
scalar tree_4_3_u04_r19_network.node[0].content_store 	decision_no[0] 	187188
scalar tree_4_3_u04_r19_network.node[0].content_store 	decision_ratio[0] 	0.0043456291056089
scalar tree_4_3_u04_r19_network.node[1].core_layer 	interests[1] 	98071
scalar tree_4_3_u04_r19_network.node[1].core_layer 	data[1] 	95989
scalar tree_4_3_u04_r19_network.node[1].content_store 	p_hit[1] 	0.021229517390462
scalar tree_4_3_u04_r19_network.node[1].content_store 	hits[1] 	2082
scalar tree_4_3_u04_r19_network.node[1].content_store 	misses[1] 	95989
scalar tree_4_3_u04_r19_network.node[1].content_store 	decision_yes[1] 	517
scalar tree_4_3_u04_r19_network.node[1].content_store 	decision_no[1] 	95472
scalar tree_4_3_u04_r19_network.node[1].content_store 	decision_ratio[1] 	0.0053860338163748
scalar tree_4_3_u04_r19_network.node[2].core_layer 	interests[2] 	71284
scalar tree_4_3_u04_r19_network.node[2].core_layer 	data[2] 	68844
scalar tree_4_3_u04_r19_network.node[2].content_store 	p_hit[2] 	0.034243308456316
scalar tree_4_3_u04_r19_network.node[2].content_store 	hits[2] 	2441
scalar tree_4_3_u04_r19_network.node[2].content_store 	misses[2] 	68843
scalar tree_4_3_u04_r19_network.node[2].content_store 	decision_yes[2] 	463
scalar tree_4_3_u04_r19_network.node[2].content_store 	decision_no[2] 	68381
scalar tree_4_3_u04_r19_network.node[2].content_store 	decision_ratio[2] 	0.0067253500668177
scalar tree_4_3_u04_r19_network.node[3].core_layer 	interests[3] 	41074
scalar tree_4_3_u04_r19_network.node[3].core_layer 	data[3] 	39161
scalar tree_4_3_u04_r19_network.node[3].content_store 	p_hit[3] 	0.0465501290354
scalar tree_4_3_u04_r19_network.node[3].content_store 	hits[3] 	1912
scalar tree_4_3_u04_r19_network.node[3].content_store 	misses[3] 	39162
scalar tree_4_3_u04_r19_network.node[3].content_store 	decision_yes[3] 	296
scalar tree_4_3_u04_r19_network.node[3].content_store 	decision_no[3] 	38865
scalar tree_4_3_u04_r19_network.node[3].content_store 	decision_ratio[3] 	0.0075585403845663
scalar tree_4_3_u04_r19_network.node[4].core_layer 	interests[4] 	35087
scalar tree_4_3_u04_r19_network.node[4].core_layer 	data[4] 	32790
scalar tree_4_3_u04_r19_network.node[4].content_store 	p_hit[4] 	0.065465842049762
scalar tree_4_3_u04_r19_network.node[4].content_store 	hits[4] 	2297
scalar tree_4_3_u04_r19_network.node[4].content_store 	misses[4] 	32790
scalar tree_4_3_u04_r19_network.node[4].content_store 	decision_yes[4] 	295
scalar tree_4_3_u04_r19_network.node[4].content_store 	decision_no[4] 	32495
scalar tree_4_3_u04_r19_network.node[4].content_store 	decision_ratio[4] 	0.0089966453186947
scalar tree_4_3_u04_r19_network.node[5].core_layer 	interests[5] 	30458
scalar tree_4_3_u04_r19_network.node[5].core_layer 	data[5] 	26795
scalar tree_4_3_u04_r19_network.node[5].content_store 	p_hit[5] 	0.12026397005713
scalar tree_4_3_u04_r19_network.node[5].content_store 	hits[5] 	3663
scalar tree_4_3_u04_r19_network.node[5].content_store 	misses[5] 	26795
scalar tree_4_3_u04_r19_network.node[5].content_store 	decision_yes[5] 	397
scalar tree_4_3_u04_r19_network.node[5].content_store 	decision_no[5] 	26398
scalar tree_4_3_u04_r19_network.node[5].content_store 	decision_ratio[5] 	0.014816197051689
scalar tree_4_3_u04_r19_network.node[6].core_layer 	interests[6] 	19034
scalar tree_4_3_u04_r19_network.node[6].core_layer 	data[6] 	16970
scalar tree_4_3_u04_r19_network.node[6].content_store 	p_hit[6] 	0.10843753283598
scalar tree_4_3_u04_r19_network.node[6].content_store 	hits[6] 	2064
scalar tree_4_3_u04_r19_network.node[6].content_store 	misses[6] 	16970
scalar tree_4_3_u04_r19_network.node[6].content_store 	decision_yes[6] 	188
scalar tree_4_3_u04_r19_network.node[6].content_store 	decision_no[6] 	16782
scalar tree_4_3_u04_r19_network.node[6].content_store 	decision_ratio[6] 	0.011078373600471
scalar tree_4_3_u04_r19_network.node[7].core_layer 	interests[7] 	43404
scalar tree_4_3_u04_r19_network.node[7].core_layer 	data[7] 	40911
scalar tree_4_3_u04_r19_network.node[7].content_store 	p_hit[7] 	0.057460141922403
scalar tree_4_3_u04_r19_network.node[7].content_store 	hits[7] 	2494
scalar tree_4_3_u04_r19_network.node[7].content_store 	misses[7] 	40910
scalar tree_4_3_u04_r19_network.node[7].content_store 	decision_yes[7] 	378
scalar tree_4_3_u04_r19_network.node[7].content_store 	decision_no[7] 	40533
scalar tree_4_3_u04_r19_network.node[7].content_store 	decision_ratio[7] 	0.0092395688201217
scalar tree_4_3_u04_r19_network.node[8].core_layer 	interests[8] 	18556
scalar tree_4_3_u04_r19_network.node[8].core_layer 	data[8] 	16615
scalar tree_4_3_u04_r19_network.node[8].content_store 	p_hit[8] 	0.10460228497521
scalar tree_4_3_u04_r19_network.node[8].content_store 	hits[8] 	1941
scalar tree_4_3_u04_r19_network.node[8].content_store 	misses[8] 	16615
scalar tree_4_3_u04_r19_network.node[8].content_store 	decision_yes[8] 	194
scalar tree_4_3_u04_r19_network.node[8].content_store 	decision_no[8] 	16421
scalar tree_4_3_u04_r19_network.node[8].content_store 	decision_ratio[8] 	0.011676196208246
scalar tree_4_3_u04_r19_network.node[9].core_layer 	interests[9] 	20474
scalar tree_4_3_u04_r19_network.node[9].core_layer 	data[9] 	17468
scalar tree_4_3_u04_r19_network.node[9].content_store 	p_hit[9] 	0.14682035752662
scalar tree_4_3_u04_r19_network.node[9].content_store 	hits[9] 	3006
scalar tree_4_3_u04_r19_network.node[9].content_store 	misses[9] 	17468
scalar tree_4_3_u04_r19_network.node[9].content_store 	decision_yes[9] 	241
scalar tree_4_3_u04_r19_network.node[9].content_store 	decision_no[9] 	17227
scalar tree_4_3_u04_r19_network.node[9].content_store 	decision_ratio[9] 	0.01379665674376
scalar tree_4_3_u04_r19_network.node[10].core_layer 	interests[10] 	36924
scalar tree_4_3_u04_r19_network.node[10].core_layer 	data[10] 	33524
scalar tree_4_3_u04_r19_network.node[10].content_store 	p_hit[10] 	0.092026865995017
scalar tree_4_3_u04_r19_network.node[10].content_store 	hits[10] 	3398
scalar tree_4_3_u04_r19_network.node[10].content_store 	misses[10] 	33526
scalar tree_4_3_u04_r19_network.node[10].content_store 	decision_yes[10] 	356
scalar tree_4_3_u04_r19_network.node[10].content_store 	decision_no[10] 	33168
scalar tree_4_3_u04_r19_network.node[10].content_store 	decision_ratio[10] 	0.010619257845126
scalar tree_4_3_u04_r19_network.node[11].core_layer 	interests[11] 	27748
scalar tree_4_3_u04_r19_network.node[11].core_layer 	data[11] 	25689
scalar tree_4_3_u04_r19_network.node[11].content_store 	p_hit[11] 	0.074167507568113
scalar tree_4_3_u04_r19_network.node[11].content_store 	hits[11] 	2058
scalar tree_4_3_u04_r19_network.node[11].content_store 	misses[11] 	25690
scalar tree_4_3_u04_r19_network.node[11].content_store 	decision_yes[11] 	321
scalar tree_4_3_u04_r19_network.node[11].content_store 	decision_no[11] 	25368
scalar tree_4_3_u04_r19_network.node[11].content_store 	decision_ratio[11] 	0.012495620693682
scalar tree_4_3_u04_r19_network.node[12].core_layer 	interests[12] 	18858
scalar tree_4_3_u04_r19_network.node[12].core_layer 	data[12] 	16998
scalar tree_4_3_u04_r19_network.node[12].content_store 	p_hit[12] 	0.098578852476403
scalar tree_4_3_u04_r19_network.node[12].content_store 	hits[12] 	1859
scalar tree_4_3_u04_r19_network.node[12].content_store 	misses[12] 	16999
scalar tree_4_3_u04_r19_network.node[12].content_store 	decision_yes[12] 	190
scalar tree_4_3_u04_r19_network.node[12].content_store 	decision_no[12] 	16808
scalar tree_4_3_u04_r19_network.node[12].content_store 	decision_ratio[12] 	0.011177785621838
scalar tree_4_3_u04_r19_network.node[13].core_layer 	interests[13] 	12474
scalar tree_4_3_u04_r19_network.node[13].core_layer 	data[13] 	8727
scalar tree_4_3_u04_r19_network.node[13].content_store 	p_hit[13] 	0.3003848003848
scalar tree_4_3_u04_r19_network.node[13].content_store 	hits[13] 	3747
scalar tree_4_3_u04_r19_network.node[13].content_store 	misses[13] 	8727
scalar tree_4_3_u04_r19_network.node[13].content_store 	decision_yes[13] 	106
scalar tree_4_3_u04_r19_network.node[13].content_store 	decision_no[13] 	8621
scalar tree_4_3_u04_r19_network.node[13].content_store 	decision_ratio[13] 	0.012146212902487
scalar tree_4_3_u04_r19_network.node[14].core_layer 	interests[14] 	13408
scalar tree_4_3_u04_r19_network.node[14].core_layer 	data[14] 	8930
scalar tree_4_3_u04_r19_network.node[14].content_store 	p_hit[14] 	0.33397971360382
scalar tree_4_3_u04_r19_network.node[14].content_store 	hits[14] 	4478
scalar tree_4_3_u04_r19_network.node[14].content_store 	misses[14] 	8930
scalar tree_4_3_u04_r19_network.node[14].content_store 	decision_yes[14] 	131
scalar tree_4_3_u04_r19_network.node[14].content_store 	decision_no[14] 	8799
scalar tree_4_3_u04_r19_network.node[14].content_store 	decision_ratio[14] 	0.014669652855543
scalar tree_4_3_u04_r19_network.node[15].core_layer 	interests[15] 	12776
scalar tree_4_3_u04_r19_network.node[15].core_layer 	data[15] 	9053
scalar tree_4_3_u04_r19_network.node[15].content_store 	p_hit[15] 	0.2914057608015
scalar tree_4_3_u04_r19_network.node[15].content_store 	hits[15] 	3723
scalar tree_4_3_u04_r19_network.node[15].content_store 	misses[15] 	9053
scalar tree_4_3_u04_r19_network.node[15].content_store 	decision_yes[15] 	125
scalar tree_4_3_u04_r19_network.node[15].content_store 	decision_no[15] 	8928
scalar tree_4_3_u04_r19_network.node[15].content_store 	decision_ratio[15] 	0.013807577598586
scalar tree_4_3_u04_r19_network.node[16].core_layer 	interests[16] 	12609
scalar tree_4_3_u04_r19_network.node[16].core_layer 	data[16] 	8697
scalar tree_4_3_u04_r19_network.node[16].content_store 	p_hit[16] 	0.31025458006186
scalar tree_4_3_u04_r19_network.node[16].content_store 	hits[16] 	3912
scalar tree_4_3_u04_r19_network.node[16].content_store 	misses[16] 	8697
scalar tree_4_3_u04_r19_network.node[16].content_store 	decision_yes[16] 	111
scalar tree_4_3_u04_r19_network.node[16].content_store 	decision_no[16] 	8586
scalar tree_4_3_u04_r19_network.node[16].content_store 	decision_ratio[16] 	0.012763021731632
scalar tree_4_3_u04_r19_network.node[17].core_layer 	interests[17] 	12684
scalar tree_4_3_u04_r19_network.node[17].core_layer 	data[17] 	8766
scalar tree_4_3_u04_r19_network.node[17].content_store 	p_hit[17] 	0.30889309366131
scalar tree_4_3_u04_r19_network.node[17].content_store 	hits[17] 	3918
scalar tree_4_3_u04_r19_network.node[17].content_store 	misses[17] 	8766
scalar tree_4_3_u04_r19_network.node[17].content_store 	decision_yes[17] 	108
scalar tree_4_3_u04_r19_network.node[17].content_store 	decision_no[17] 	8658
scalar tree_4_3_u04_r19_network.node[17].content_store 	decision_ratio[17] 	0.012320328542094
scalar tree_4_3_u04_r19_network.node[18].core_layer 	interests[18] 	12774
scalar tree_4_3_u04_r19_network.node[18].core_layer 	data[18] 	8834
scalar tree_4_3_u04_r19_network.node[18].content_store 	p_hit[18] 	0.30836073273837
scalar tree_4_3_u04_r19_network.node[18].content_store 	hits[18] 	3939
scalar tree_4_3_u04_r19_network.node[18].content_store 	misses[18] 	8835
scalar tree_4_3_u04_r19_network.node[18].content_store 	decision_yes[18] 	124
scalar tree_4_3_u04_r19_network.node[18].content_store 	decision_no[18] 	8710
scalar tree_4_3_u04_r19_network.node[18].content_store 	decision_ratio[18] 	0.014036676477247
scalar tree_4_3_u04_r19_network.node[19].core_layer 	interests[19] 	12917
scalar tree_4_3_u04_r19_network.node[19].core_layer 	data[19] 	8766
scalar tree_4_3_u04_r19_network.node[19].content_store 	p_hit[19] 	0.32135944878842
scalar tree_4_3_u04_r19_network.node[19].content_store 	hits[19] 	4151
scalar tree_4_3_u04_r19_network.node[19].content_store 	misses[19] 	8766
scalar tree_4_3_u04_r19_network.node[19].content_store 	decision_yes[19] 	138
scalar tree_4_3_u04_r19_network.node[19].content_store 	decision_no[19] 	8628
scalar tree_4_3_u04_r19_network.node[19].content_store 	decision_ratio[19] 	0.01574264202601
scalar tree_4_3_u04_r19_network.node[20].core_layer 	interests[20] 	12395
scalar tree_4_3_u04_r19_network.node[20].core_layer 	data[20] 	8761
scalar tree_4_3_u04_r19_network.node[20].content_store 	p_hit[20] 	0.29318273497378
scalar tree_4_3_u04_r19_network.node[20].content_store 	hits[20] 	3634
scalar tree_4_3_u04_r19_network.node[20].content_store 	misses[20] 	8761
scalar tree_4_3_u04_r19_network.node[20].content_store 	decision_yes[20] 	95
scalar tree_4_3_u04_r19_network.node[20].content_store 	decision_no[20] 	8666
scalar tree_4_3_u04_r19_network.node[20].content_store 	decision_ratio[20] 	0.010843511014724
scalar tree_4_3_u04_r19_network.node[21].core_layer 	interests[21] 	12296
scalar tree_4_3_u04_r19_network.node[21].core_layer 	data[21] 	8644
scalar tree_4_3_u04_r19_network.node[21].content_store 	p_hit[21] 	0.29700715679896
scalar tree_4_3_u04_r19_network.node[21].content_store 	hits[21] 	3652
scalar tree_4_3_u04_r19_network.node[21].content_store 	misses[21] 	8644
scalar tree_4_3_u04_r19_network.node[21].content_store 	decision_yes[21] 	109
scalar tree_4_3_u04_r19_network.node[21].content_store 	decision_no[21] 	8535
scalar tree_4_3_u04_r19_network.node[21].content_store 	decision_ratio[21] 	0.012609902822767
scalar tree_4_3_u04_r19_network.node[22].core_layer 	interests[22] 	12403
scalar tree_4_3_u04_r19_network.node[22].core_layer 	data[22] 	8732
scalar tree_4_3_u04_r19_network.node[22].content_store 	p_hit[22] 	0.29597677981134
scalar tree_4_3_u04_r19_network.node[22].content_store 	hits[22] 	3671
scalar tree_4_3_u04_r19_network.node[22].content_store 	misses[22] 	8732
scalar tree_4_3_u04_r19_network.node[22].content_store 	decision_yes[22] 	112
scalar tree_4_3_u04_r19_network.node[22].content_store 	decision_no[22] 	8620
scalar tree_4_3_u04_r19_network.node[22].content_store 	decision_ratio[22] 	0.012826385707742
scalar tree_4_3_u04_r19_network.node[23].core_layer 	interests[23] 	12488
scalar tree_4_3_u04_r19_network.node[23].core_layer 	data[23] 	8872
scalar tree_4_3_u04_r19_network.node[23].content_store 	p_hit[23] 	0.28955797565663
scalar tree_4_3_u04_r19_network.node[23].content_store 	hits[23] 	3616
scalar tree_4_3_u04_r19_network.node[23].content_store 	misses[23] 	8872
scalar tree_4_3_u04_r19_network.node[23].content_store 	decision_yes[23] 	115
scalar tree_4_3_u04_r19_network.node[23].content_store 	decision_no[23] 	8757
scalar tree_4_3_u04_r19_network.node[23].content_store 	decision_ratio[23] 	0.012962128043282
scalar tree_4_3_u04_r19_network.node[24].core_layer 	interests[24] 	13016
scalar tree_4_3_u04_r19_network.node[24].core_layer 	data[24] 	8851
scalar tree_4_3_u04_r19_network.node[24].content_store 	p_hit[24] 	0.31999078057775
scalar tree_4_3_u04_r19_network.node[24].content_store 	hits[24] 	4165
scalar tree_4_3_u04_r19_network.node[24].content_store 	misses[24] 	8851
scalar tree_4_3_u04_r19_network.node[24].content_store 	decision_yes[24] 	112
scalar tree_4_3_u04_r19_network.node[24].content_store 	decision_no[24] 	8739
scalar tree_4_3_u04_r19_network.node[24].content_store 	decision_ratio[24] 	0.012653937408202
scalar tree_4_3_u04_r19_network.node[25].core_layer 	interests[25] 	12900
scalar tree_4_3_u04_r19_network.node[25].core_layer 	data[25] 	8758
scalar tree_4_3_u04_r19_network.node[25].content_store 	p_hit[25] 	0.32108527131783
scalar tree_4_3_u04_r19_network.node[25].content_store 	hits[25] 	4142
scalar tree_4_3_u04_r19_network.node[25].content_store 	misses[25] 	8758
scalar tree_4_3_u04_r19_network.node[25].content_store 	decision_yes[25] 	108
scalar tree_4_3_u04_r19_network.node[25].content_store 	decision_no[25] 	8650
scalar tree_4_3_u04_r19_network.node[25].content_store 	decision_ratio[25] 	0.012331582553094
scalar tree_4_3_u04_r19_network.node[26].core_layer 	interests[26] 	12247
scalar tree_4_3_u04_r19_network.node[26].core_layer 	data[26] 	8874
scalar tree_4_3_u04_r19_network.node[26].content_store 	p_hit[26] 	0.27541438719686
scalar tree_4_3_u04_r19_network.node[26].content_store 	hits[26] 	3373
scalar tree_4_3_u04_r19_network.node[26].content_store 	misses[26] 	8874
scalar tree_4_3_u04_r19_network.node[26].content_store 	decision_yes[26] 	133
scalar tree_4_3_u04_r19_network.node[26].content_store 	decision_no[26] 	8741
scalar tree_4_3_u04_r19_network.node[26].content_store 	decision_ratio[26] 	0.014987604237097
scalar tree_4_3_u04_r19_network.node[27].core_layer 	interests[27] 	12759
scalar tree_4_3_u04_r19_network.node[27].core_layer 	data[27] 	8803
scalar tree_4_3_u04_r19_network.node[27].content_store 	p_hit[27] 	0.309977270946
scalar tree_4_3_u04_r19_network.node[27].content_store 	hits[27] 	3955
scalar tree_4_3_u04_r19_network.node[27].content_store 	misses[27] 	8804
scalar tree_4_3_u04_r19_network.node[27].content_store 	decision_yes[27] 	104
scalar tree_4_3_u04_r19_network.node[27].content_store 	decision_no[27] 	8699
scalar tree_4_3_u04_r19_network.node[27].content_store 	decision_ratio[27] 	0.011814154265591
scalar tree_4_3_u04_r19_network.node[28].core_layer 	interests[28] 	12849
scalar tree_4_3_u04_r19_network.node[28].core_layer 	data[28] 	8788
scalar tree_4_3_u04_r19_network.node[28].content_store 	p_hit[28] 	0.31613355124912
scalar tree_4_3_u04_r19_network.node[28].content_store 	hits[28] 	4062
scalar tree_4_3_u04_r19_network.node[28].content_store 	misses[28] 	8787
scalar tree_4_3_u04_r19_network.node[28].content_store 	decision_yes[28] 	118
scalar tree_4_3_u04_r19_network.node[28].content_store 	decision_no[28] 	8670
scalar tree_4_3_u04_r19_network.node[28].content_store 	decision_ratio[28] 	0.013427401001365
scalar tree_4_3_u04_r19_network.node[29].core_layer 	interests[29] 	12507
scalar tree_4_3_u04_r19_network.node[29].core_layer 	data[29] 	8848
scalar tree_4_3_u04_r19_network.node[29].content_store 	p_hit[29] 	0.29255616854561
scalar tree_4_3_u04_r19_network.node[29].content_store 	hits[29] 	3659
scalar tree_4_3_u04_r19_network.node[29].content_store 	misses[29] 	8848
scalar tree_4_3_u04_r19_network.node[29].content_store 	decision_yes[29] 	107
scalar tree_4_3_u04_r19_network.node[29].content_store 	decision_no[29] 	8741
scalar tree_4_3_u04_r19_network.node[29].content_store 	decision_ratio[29] 	0.012093128390597
scalar tree_4_3_u04_r19_network.node[30].core_layer 	interests[30] 	12221
scalar tree_4_3_u04_r19_network.node[30].core_layer 	data[30] 	8596
scalar tree_4_3_u04_r19_network.node[30].content_store 	p_hit[30] 	0.29662057114802
scalar tree_4_3_u04_r19_network.node[30].content_store 	hits[30] 	3625
scalar tree_4_3_u04_r19_network.node[30].content_store 	misses[30] 	8596
scalar tree_4_3_u04_r19_network.node[30].content_store 	decision_yes[30] 	90
scalar tree_4_3_u04_r19_network.node[30].content_store 	decision_no[30] 	8506
scalar tree_4_3_u04_r19_network.node[30].content_store 	decision_ratio[30] 	0.010469986040019
scalar tree_4_3_u04_r19_network.node[31].core_layer 	interests[31] 	12714
scalar tree_4_3_u04_r19_network.node[31].core_layer 	data[31] 	8778
scalar tree_4_3_u04_r19_network.node[31].content_store 	p_hit[31] 	0.30957999056159
scalar tree_4_3_u04_r19_network.node[31].content_store 	hits[31] 	3936
scalar tree_4_3_u04_r19_network.node[31].content_store 	misses[31] 	8778
scalar tree_4_3_u04_r19_network.node[31].content_store 	decision_yes[31] 	117
scalar tree_4_3_u04_r19_network.node[31].content_store 	decision_no[31] 	8661
scalar tree_4_3_u04_r19_network.node[31].content_store 	decision_ratio[31] 	0.013328776486671
scalar tree_4_3_u04_r19_network.node[32].core_layer 	interests[32] 	13216
scalar tree_4_3_u04_r19_network.node[32].core_layer 	data[32] 	8802
scalar tree_4_3_u04_r19_network.node[32].content_store 	p_hit[32] 	0.33398910411622
scalar tree_4_3_u04_r19_network.node[32].content_store 	hits[32] 	4414
scalar tree_4_3_u04_r19_network.node[32].content_store 	misses[32] 	8802
scalar tree_4_3_u04_r19_network.node[32].content_store 	decision_yes[32] 	123
scalar tree_4_3_u04_r19_network.node[32].content_store 	decision_no[32] 	8679
scalar tree_4_3_u04_r19_network.node[32].content_store 	decision_ratio[32] 	0.013974096796183
scalar tree_4_3_u04_r19_network.node[33].core_layer 	interests[33] 	12587
scalar tree_4_3_u04_r19_network.node[33].core_layer 	data[33] 	8786
scalar tree_4_3_u04_r19_network.node[33].content_store 	p_hit[33] 	0.3019782315087
scalar tree_4_3_u04_r19_network.node[33].content_store 	hits[33] 	3801
scalar tree_4_3_u04_r19_network.node[33].content_store 	misses[33] 	8786
scalar tree_4_3_u04_r19_network.node[33].content_store 	decision_yes[33] 	121
scalar tree_4_3_u04_r19_network.node[33].content_store 	decision_no[33] 	8665
scalar tree_4_3_u04_r19_network.node[33].content_store 	decision_ratio[33] 	0.01377190985659
scalar tree_4_3_u04_r19_network.node[34].core_layer 	interests[34] 	12485
scalar tree_4_3_u04_r19_network.node[34].core_layer 	data[34] 	8781
scalar tree_4_3_u04_r19_network.node[34].content_store 	p_hit[34] 	0.29667601121346
scalar tree_4_3_u04_r19_network.node[34].content_store 	hits[34] 	3704
scalar tree_4_3_u04_r19_network.node[34].content_store 	misses[34] 	8781
scalar tree_4_3_u04_r19_network.node[34].content_store 	decision_yes[34] 	110
scalar tree_4_3_u04_r19_network.node[34].content_store 	decision_no[34] 	8671
scalar tree_4_3_u04_r19_network.node[34].content_store 	decision_ratio[34] 	0.012527047033367
scalar tree_4_3_u04_r19_network.node[35].core_layer 	interests[35] 	12509
scalar tree_4_3_u04_r19_network.node[35].core_layer 	data[35] 	8852
scalar tree_4_3_u04_r19_network.node[35].content_store 	p_hit[35] 	0.29242945079543
scalar tree_4_3_u04_r19_network.node[35].content_store 	hits[35] 	3658
scalar tree_4_3_u04_r19_network.node[35].content_store 	misses[35] 	8851
scalar tree_4_3_u04_r19_network.node[35].content_store 	decision_yes[35] 	102
scalar tree_4_3_u04_r19_network.node[35].content_store 	decision_no[35] 	8750
scalar tree_4_3_u04_r19_network.node[35].content_store 	decision_ratio[35] 	0.011522819701762
scalar tree_4_3_u04_r19_network.node[36].core_layer 	interests[36] 	12314
scalar tree_4_3_u04_r19_network.node[36].core_layer 	data[36] 	8777
scalar tree_4_3_u04_r19_network.node[36].content_store 	p_hit[36] 	0.28715283417249
scalar tree_4_3_u04_r19_network.node[36].content_store 	hits[36] 	3536
scalar tree_4_3_u04_r19_network.node[36].content_store 	misses[36] 	8778
scalar tree_4_3_u04_r19_network.node[36].content_store 	decision_yes[36] 	122
scalar tree_4_3_u04_r19_network.node[36].content_store 	decision_no[36] 	8655
scalar tree_4_3_u04_r19_network.node[36].content_store 	decision_ratio[36] 	0.013899965819756
scalar tree_4_3_u04_r19_network.node[37].core_layer 	interests[37] 	13178
scalar tree_4_3_u04_r19_network.node[37].core_layer 	data[37] 	8920
scalar tree_4_3_u04_r19_network.node[37].content_store 	p_hit[37] 	0.32311428137805
scalar tree_4_3_u04_r19_network.node[37].content_store 	hits[37] 	4258
scalar tree_4_3_u04_r19_network.node[37].content_store 	misses[37] 	8920
scalar tree_4_3_u04_r19_network.node[37].content_store 	decision_yes[37] 	112
scalar tree_4_3_u04_r19_network.node[37].content_store 	decision_no[37] 	8808
scalar tree_4_3_u04_r19_network.node[37].content_store 	decision_ratio[37] 	0.012556053811659
scalar tree_4_3_u04_r19_network.node[38].core_layer 	interests[38] 	12394
scalar tree_4_3_u04_r19_network.node[38].core_layer 	data[38] 	8788
scalar tree_4_3_u04_r19_network.node[38].content_store 	p_hit[38] 	0.29094723253187
scalar tree_4_3_u04_r19_network.node[38].content_store 	hits[38] 	3606
scalar tree_4_3_u04_r19_network.node[38].content_store 	misses[38] 	8788
scalar tree_4_3_u04_r19_network.node[38].content_store 	decision_yes[38] 	100
scalar tree_4_3_u04_r19_network.node[38].content_store 	decision_no[38] 	8688
scalar tree_4_3_u04_r19_network.node[38].content_store 	decision_ratio[38] 	0.011379153390988
scalar tree_4_3_u04_r19_network.node[39].core_layer 	interests[39] 	12254
scalar tree_4_3_u04_r19_network.node[39].core_layer 	data[39] 	8624
scalar tree_4_3_u04_r19_network.node[39].content_store 	p_hit[39] 	0.29614819650726
scalar tree_4_3_u04_r19_network.node[39].content_store 	hits[39] 	3629
scalar tree_4_3_u04_r19_network.node[39].content_store 	misses[39] 	8625
scalar tree_4_3_u04_r19_network.node[39].content_store 	decision_yes[39] 	112
scalar tree_4_3_u04_r19_network.node[39].content_store 	decision_no[39] 	8512
scalar tree_4_3_u04_r19_network.node[39].content_store 	decision_ratio[39] 	0.012987012987013
scalar tree_4_3_u04_r19_network.client[13] 	hdistance[13] 	2.6531479013991
scalar tree_4_3_u04_r19_network.client[13] 	downloads[13] 	12008
scalar tree_4_3_u04_r19_network.client[13] 	avg_time[13] 	0.004142478513
scalar tree_4_3_u04_r19_network.client[14] 	hdistance[14] 	2.597972137499
scalar tree_4_3_u04_r19_network.client[14] 	downloads[14] 	12131
scalar tree_4_3_u04_r19_network.client[14] 	avg_time[14] 	0.004065778854
scalar tree_4_3_u04_r19_network.client[15] 	hdistance[15] 	2.6876422764228
scalar tree_4_3_u04_r19_network.client[15] 	downloads[15] 	12300
scalar tree_4_3_u04_r19_network.client[15] 	avg_time[15] 	0.004200972545
scalar tree_4_3_u04_r19_network.client[16] 	hdistance[16] 	2.622993528868
scalar tree_4_3_u04_r19_network.client[16] 	downloads[16] 	11899
scalar tree_4_3_u04_r19_network.client[16] 	avg_time[16] 	0.004129419655
scalar tree_4_3_u04_r19_network.client[17] 	hdistance[17] 	2.6277773154697
scalar tree_4_3_u04_r19_network.client[17] 	downloads[17] 	12017
scalar tree_4_3_u04_r19_network.client[17] 	avg_time[17] 	0.004132642397
scalar tree_4_3_u04_r19_network.client[18] 	hdistance[18] 	2.643811737362
scalar tree_4_3_u04_r19_network.client[18] 	downloads[18] 	12047
scalar tree_4_3_u04_r19_network.client[18] 	avg_time[18] 	0.004159206764
scalar tree_4_3_u04_r19_network.client[19] 	hdistance[19] 	2.6070713809206
scalar tree_4_3_u04_r19_network.client[19] 	downloads[19] 	11992
scalar tree_4_3_u04_r19_network.client[19] 	avg_time[19] 	0.004056868221
scalar tree_4_3_u04_r19_network.client[20] 	hdistance[20] 	2.6724452554745
scalar tree_4_3_u04_r19_network.client[20] 	downloads[20] 	12056
scalar tree_4_3_u04_r19_network.client[20] 	avg_time[20] 	0.004173852328
scalar tree_4_3_u04_r19_network.client[21] 	hdistance[21] 	2.6543674698795
scalar tree_4_3_u04_r19_network.client[21] 	downloads[21] 	11952
scalar tree_4_3_u04_r19_network.client[21] 	avg_time[21] 	0.004151101441
scalar tree_4_3_u04_r19_network.client[22] 	hdistance[22] 	2.6549118387909
scalar tree_4_3_u04_r19_network.client[22] 	downloads[22] 	11910
scalar tree_4_3_u04_r19_network.client[22] 	avg_time[22] 	0.004148947488
scalar tree_4_3_u04_r19_network.client[23] 	hdistance[23] 	2.6815870634325
scalar tree_4_3_u04_r19_network.client[23] 	downloads[23] 	11997
scalar tree_4_3_u04_r19_network.client[23] 	avg_time[23] 	0.004196546157
scalar tree_4_3_u04_r19_network.client[24] 	hdistance[24] 	2.6025491502832
scalar tree_4_3_u04_r19_network.client[24] 	downloads[24] 	12004
scalar tree_4_3_u04_r19_network.client[24] 	avg_time[24] 	0.004043982337
scalar tree_4_3_u04_r19_network.client[25] 	hdistance[25] 	2.6252205326388
scalar tree_4_3_u04_r19_network.client[25] 	downloads[25] 	11903
scalar tree_4_3_u04_r19_network.client[25] 	avg_time[25] 	0.004072583771
scalar tree_4_3_u04_r19_network.client[26] 	hdistance[26] 	2.7116008316008
scalar tree_4_3_u04_r19_network.client[26] 	downloads[26] 	12025
scalar tree_4_3_u04_r19_network.client[26] 	avg_time[26] 	0.004249809879
scalar tree_4_3_u04_r19_network.client[27] 	hdistance[27] 	2.6131886477462
scalar tree_4_3_u04_r19_network.client[27] 	downloads[27] 	11980
scalar tree_4_3_u04_r19_network.client[27] 	avg_time[27] 	0.004056219228
scalar tree_4_3_u04_r19_network.client[28] 	hdistance[28] 	2.6211258167197
scalar tree_4_3_u04_r19_network.client[28] 	downloads[28] 	11938
scalar tree_4_3_u04_r19_network.client[28] 	avg_time[28] 	0.004064496942
scalar tree_4_3_u04_r19_network.client[29] 	hdistance[29] 	2.6497932175352
scalar tree_4_3_u04_r19_network.client[29] 	downloads[29] 	12090
scalar tree_4_3_u04_r19_network.client[29] 	avg_time[29] 	0.004137300524
scalar tree_4_3_u04_r19_network.client[30] 	hdistance[30] 	2.6495307347595
scalar tree_4_3_u04_r19_network.client[30] 	downloads[30] 	11827
scalar tree_4_3_u04_r19_network.client[30] 	avg_time[30] 	0.00413291328
scalar tree_4_3_u04_r19_network.client[31] 	hdistance[31] 	2.5981161695447
scalar tree_4_3_u04_r19_network.client[31] 	downloads[31] 	12103
scalar tree_4_3_u04_r19_network.client[31] 	avg_time[31] 	0.004078655149
scalar tree_4_3_u04_r19_network.client[32] 	hdistance[32] 	2.607160825088
scalar tree_4_3_u04_r19_network.client[32] 	downloads[32] 	11926
scalar tree_4_3_u04_r19_network.client[32] 	avg_time[32] 	0.004070934483
scalar tree_4_3_u04_r19_network.client[33] 	hdistance[33] 	2.6322667113419
scalar tree_4_3_u04_r19_network.client[33] 	downloads[33] 	11938
scalar tree_4_3_u04_r19_network.client[33] 	avg_time[33] 	0.004138713728
scalar tree_4_3_u04_r19_network.client[34] 	hdistance[34] 	2.6744687915007
scalar tree_4_3_u04_r19_network.client[34] 	downloads[34] 	12048
scalar tree_4_3_u04_r19_network.client[34] 	avg_time[34] 	0.00415487749
scalar tree_4_3_u04_r19_network.client[35] 	hdistance[35] 	2.688444296862
scalar tree_4_3_u04_r19_network.client[35] 	downloads[35] 	12046
scalar tree_4_3_u04_r19_network.client[35] 	avg_time[35] 	0.004174494729
scalar tree_4_3_u04_r19_network.client[36] 	hdistance[36] 	2.7010796221323
scalar tree_4_3_u04_r19_network.client[36] 	downloads[36] 	11856
scalar tree_4_3_u04_r19_network.client[36] 	avg_time[36] 	0.004201920115
scalar tree_4_3_u04_r19_network.client[37] 	hdistance[37] 	2.5964622251612
scalar tree_4_3_u04_r19_network.client[37] 	downloads[37] 	12098
scalar tree_4_3_u04_r19_network.client[37] 	avg_time[37] 	0.004057832078
scalar tree_4_3_u04_r19_network.client[38] 	hdistance[38] 	2.6877021311883
scalar tree_4_3_u04_r19_network.client[38] 	downloads[38] 	12059
scalar tree_4_3_u04_r19_network.client[38] 	avg_time[38] 	0.004178784596
scalar tree_4_3_u04_r19_network.client[39] 	hdistance[39] 	2.6591539820032
scalar tree_4_3_u04_r19_network.client[39] 	downloads[39] 	11891
scalar tree_4_3_u04_r19_network.client[39] 	avg_time[39] 	0.004140607538
