version 2
run General-273-20160901-03:14:33-8710
attr a 0.9
attr cd ffc
attr configname General
attr cr lru
attr datetime 20160901-03:14:33
attr experiment General
attr fsize 1
attr inifile hw5115/scenario_Y/omnetp.ini
attr iterationvars "$name=tree_4_3, $un=04, $rep=12, $cd=ffc, $cr=lru, $fsize=1, $a=0.9, $sl=nrr, $ttl=1000, $variance=0.05"
attr iterationvars2 "$name=tree_4_3, $un=04, $rep=12, $cd=ffc, $cr=lru, $fsize=1, $a=0.9, $sl=nrr, $ttl=1000, $variance=0.05, $repetition=0"
attr measurement "$name=tree_4_3, $un=04, $rep=12, $cd=ffc, $cr=lru, $fsize=1, $a=0.9, $sl=nrr, $ttl=1000, $variance=0.05"
attr name tree_4_3
attr network networks.${name}_u${un}_r${rep}_network
attr processid 8710
attr rep 12
attr repetition 0
attr replication #0
attr resultdir results
attr runnumber 273
attr seedset 12
attr sl nrr
attr ttl 1000
attr un 04
attr variance 0.05

scalar . 	a 	0.9
scalar . 	fsize 	1
scalar . 	rep 	12
scalar . 	ttl 	1000
scalar . 	un 	04
scalar . 	variance 	0.05
scalar tree_4_3_u04_r12_network.content_distribution 	repo-0 	0
scalar tree_4_3_u04_r12_network.content_distribution 	client-0 	13
scalar tree_4_3_u04_r12_network.content_distribution 	client-1 	14
scalar tree_4_3_u04_r12_network.content_distribution 	client-2 	15
scalar tree_4_3_u04_r12_network.content_distribution 	client-3 	16
scalar tree_4_3_u04_r12_network.content_distribution 	client-4 	17
scalar tree_4_3_u04_r12_network.content_distribution 	client-5 	18
scalar tree_4_3_u04_r12_network.content_distribution 	client-6 	19
scalar tree_4_3_u04_r12_network.content_distribution 	client-7 	20
scalar tree_4_3_u04_r12_network.content_distribution 	client-8 	21
scalar tree_4_3_u04_r12_network.content_distribution 	client-9 	22
scalar tree_4_3_u04_r12_network.content_distribution 	client-10 	23
scalar tree_4_3_u04_r12_network.content_distribution 	client-11 	24
scalar tree_4_3_u04_r12_network.content_distribution 	client-12 	25
scalar tree_4_3_u04_r12_network.content_distribution 	client-13 	26
scalar tree_4_3_u04_r12_network.content_distribution 	client-14 	27
scalar tree_4_3_u04_r12_network.content_distribution 	client-15 	28
scalar tree_4_3_u04_r12_network.content_distribution 	client-16 	29
scalar tree_4_3_u04_r12_network.content_distribution 	client-17 	30
scalar tree_4_3_u04_r12_network.content_distribution 	client-18 	31
scalar tree_4_3_u04_r12_network.content_distribution 	client-19 	32
scalar tree_4_3_u04_r12_network.content_distribution 	client-20 	33
scalar tree_4_3_u04_r12_network.content_distribution 	client-21 	34
scalar tree_4_3_u04_r12_network.content_distribution 	client-22 	35
scalar tree_4_3_u04_r12_network.content_distribution 	client-23 	36
scalar tree_4_3_u04_r12_network.content_distribution 	client-24 	37
scalar tree_4_3_u04_r12_network.content_distribution 	client-25 	38
scalar tree_4_3_u04_r12_network.content_distribution 	client-26 	39
scalar tree_4_3_u04_r12_network.content_distribution 	repo-0_card 	100000
scalar tree_4_3_u04_r12_network.content_distribution 	repo-0_price 	0
scalar tree_4_3_u04_r12_network.statistics 	stabilization_time 	1142.6
scalar tree_4_3_u04_r12_network.statistics 	p_hit 	0.23292315519534
scalar tree_4_3_u04_r12_network.statistics 	interests 	24845.575
scalar tree_4_3_u04_r12_network.statistics 	data 	16761.6
scalar tree_4_3_u04_r12_network.statistics 	hdistance 	2.6409327957625
scalar tree_4_3_u04_r12_network.statistics 	avg_time 	0.004146680761
scalar tree_4_3_u04_r12_network.statistics 	downloads 	323366
scalar tree_4_3_u04_r12_network.statistics 	total_cost 	0
scalar tree_4_3_u04_r12_network.statistics 	total_replicas 	100000
scalar tree_4_3_u04_r12_network.statistics 	inner_hit 	0.43242641465089
scalar tree_4_3_u04_r12_network.node[0].core_layer 	interests[0] 	185896
scalar tree_4_3_u04_r12_network.node[0].core_layer 	repo_load[0] 	183534
scalar tree_4_3_u04_r12_network.node[0].core_layer 	data[0] 	0
scalar tree_4_3_u04_r12_network.node[0].core_layer 	repo_int[0] 	183534
scalar tree_4_3_u04_r12_network.node[0].content_store 	p_hit[0] 	0.012706029177605
scalar tree_4_3_u04_r12_network.node[0].content_store 	hits[0] 	2362
scalar tree_4_3_u04_r12_network.node[0].content_store 	misses[0] 	183534
scalar tree_4_3_u04_r12_network.node[0].content_store 	decision_yes[0] 	807
scalar tree_4_3_u04_r12_network.node[0].content_store 	decision_no[0] 	182727
scalar tree_4_3_u04_r12_network.node[0].content_store 	decision_ratio[0] 	0.0043970054594789
scalar tree_4_3_u04_r12_network.node[1].core_layer 	interests[1] 	135884
scalar tree_4_3_u04_r12_network.node[1].core_layer 	data[1] 	132712
scalar tree_4_3_u04_r12_network.node[1].content_store 	p_hit[1] 	0.023358158429248
scalar tree_4_3_u04_r12_network.node[1].content_store 	hits[1] 	3174
scalar tree_4_3_u04_r12_network.node[1].content_store 	misses[1] 	132710
scalar tree_4_3_u04_r12_network.node[1].content_store 	decision_yes[1] 	692
scalar tree_4_3_u04_r12_network.node[1].content_store 	decision_no[1] 	132020
scalar tree_4_3_u04_r12_network.node[1].content_store 	decision_ratio[1] 	0.0052142986316234
scalar tree_4_3_u04_r12_network.node[2].core_layer 	interests[2] 	33254
scalar tree_4_3_u04_r12_network.node[2].core_layer 	data[2] 	30550
scalar tree_4_3_u04_r12_network.node[2].content_store 	p_hit[2] 	0.081313526192338
scalar tree_4_3_u04_r12_network.node[2].content_store 	hits[2] 	2704
scalar tree_4_3_u04_r12_network.node[2].content_store 	misses[2] 	30550
scalar tree_4_3_u04_r12_network.node[2].content_store 	decision_yes[2] 	220
scalar tree_4_3_u04_r12_network.node[2].content_store 	decision_no[2] 	30330
scalar tree_4_3_u04_r12_network.node[2].content_store 	decision_ratio[2] 	0.0072013093289689
scalar tree_4_3_u04_r12_network.node[3].core_layer 	interests[3] 	42967
scalar tree_4_3_u04_r12_network.node[3].core_layer 	data[3] 	40376
scalar tree_4_3_u04_r12_network.node[3].content_store 	p_hit[3] 	0.060302092303396
scalar tree_4_3_u04_r12_network.node[3].content_store 	hits[3] 	2591
scalar tree_4_3_u04_r12_network.node[3].content_store 	misses[3] 	40376
scalar tree_4_3_u04_r12_network.node[3].content_store 	decision_yes[3] 	392
scalar tree_4_3_u04_r12_network.node[3].content_store 	decision_no[3] 	39984
scalar tree_4_3_u04_r12_network.node[3].content_store 	decision_ratio[3] 	0.0097087378640777
scalar tree_4_3_u04_r12_network.node[4].core_layer 	interests[4] 	28291
scalar tree_4_3_u04_r12_network.node[4].core_layer 	data[4] 	25759
scalar tree_4_3_u04_r12_network.node[4].content_store 	p_hit[4] 	0.089533773991729
scalar tree_4_3_u04_r12_network.node[4].content_store 	hits[4] 	2533
scalar tree_4_3_u04_r12_network.node[4].content_store 	misses[4] 	25758
scalar tree_4_3_u04_r12_network.node[4].content_store 	decision_yes[4] 	304
scalar tree_4_3_u04_r12_network.node[4].content_store 	decision_no[4] 	25455
scalar tree_4_3_u04_r12_network.node[4].content_store 	decision_ratio[4] 	0.011801700376567
scalar tree_4_3_u04_r12_network.node[5].core_layer 	interests[5] 	37334
scalar tree_4_3_u04_r12_network.node[5].core_layer 	data[5] 	33981
scalar tree_4_3_u04_r12_network.node[5].content_store 	p_hit[5] 	0.089837681469974
scalar tree_4_3_u04_r12_network.node[5].content_store 	hits[5] 	3354
scalar tree_4_3_u04_r12_network.node[5].content_store 	misses[5] 	33980
scalar tree_4_3_u04_r12_network.node[5].content_store 	decision_yes[5] 	391
scalar tree_4_3_u04_r12_network.node[5].content_store 	decision_no[5] 	33590
scalar tree_4_3_u04_r12_network.node[5].content_store 	decision_ratio[5] 	0.011506430063859
scalar tree_4_3_u04_r12_network.node[6].core_layer 	interests[6] 	19854
scalar tree_4_3_u04_r12_network.node[6].core_layer 	data[6] 	17360
scalar tree_4_3_u04_r12_network.node[6].content_store 	p_hit[6] 	0.12561700413015
scalar tree_4_3_u04_r12_network.node[6].content_store 	hits[6] 	2494
scalar tree_4_3_u04_r12_network.node[6].content_store 	misses[6] 	17360
scalar tree_4_3_u04_r12_network.node[6].content_store 	decision_yes[6] 	196
scalar tree_4_3_u04_r12_network.node[6].content_store 	decision_no[6] 	17164
scalar tree_4_3_u04_r12_network.node[6].content_store 	decision_ratio[6] 	0.011290322580645
scalar tree_4_3_u04_r12_network.node[7].core_layer 	interests[7] 	45386
scalar tree_4_3_u04_r12_network.node[7].core_layer 	data[7] 	41714
scalar tree_4_3_u04_r12_network.node[7].content_store 	p_hit[7] 	0.080906006257436
scalar tree_4_3_u04_r12_network.node[7].content_store 	hits[7] 	3672
scalar tree_4_3_u04_r12_network.node[7].content_store 	misses[7] 	41714
scalar tree_4_3_u04_r12_network.node[7].content_store 	decision_yes[7] 	466
scalar tree_4_3_u04_r12_network.node[7].content_store 	decision_no[7] 	41248
scalar tree_4_3_u04_r12_network.node[7].content_store 	decision_ratio[7] 	0.01117130939253
scalar tree_4_3_u04_r12_network.node[8].core_layer 	interests[8] 	17728
scalar tree_4_3_u04_r12_network.node[8].core_layer 	data[8] 	16044
scalar tree_4_3_u04_r12_network.node[8].content_store 	p_hit[8] 	0.094990974729242
scalar tree_4_3_u04_r12_network.node[8].content_store 	hits[8] 	1684
scalar tree_4_3_u04_r12_network.node[8].content_store 	misses[8] 	16044
scalar tree_4_3_u04_r12_network.node[8].content_store 	decision_yes[8] 	148
scalar tree_4_3_u04_r12_network.node[8].content_store 	decision_no[8] 	15896
scalar tree_4_3_u04_r12_network.node[8].content_store 	decision_ratio[8] 	0.0092246322612815
scalar tree_4_3_u04_r12_network.node[9].core_layer 	interests[9] 	21694
scalar tree_4_3_u04_r12_network.node[9].core_layer 	data[9] 	18429
scalar tree_4_3_u04_r12_network.node[9].content_store 	p_hit[9] 	0.15050244307182
scalar tree_4_3_u04_r12_network.node[9].content_store 	hits[9] 	3265
scalar tree_4_3_u04_r12_network.node[9].content_store 	misses[9] 	18429
scalar tree_4_3_u04_r12_network.node[9].content_store 	decision_yes[9] 	325
scalar tree_4_3_u04_r12_network.node[9].content_store 	decision_no[9] 	18104
scalar tree_4_3_u04_r12_network.node[9].content_store 	decision_ratio[9] 	0.017635248792664
scalar tree_4_3_u04_r12_network.node[10].core_layer 	interests[10] 	37734
scalar tree_4_3_u04_r12_network.node[10].core_layer 	data[10] 	33891
scalar tree_4_3_u04_r12_network.node[10].content_store 	p_hit[10] 	0.10184449038003
scalar tree_4_3_u04_r12_network.node[10].content_store 	hits[10] 	3843
scalar tree_4_3_u04_r12_network.node[10].content_store 	misses[10] 	33891
scalar tree_4_3_u04_r12_network.node[10].content_store 	decision_yes[10] 	350
scalar tree_4_3_u04_r12_network.node[10].content_store 	decision_no[10] 	33541
scalar tree_4_3_u04_r12_network.node[10].content_store 	decision_ratio[10] 	0.010327225517099
scalar tree_4_3_u04_r12_network.node[11].core_layer 	interests[11] 	27733
scalar tree_4_3_u04_r12_network.node[11].core_layer 	data[11] 	25503
scalar tree_4_3_u04_r12_network.node[11].content_store 	p_hit[11] 	0.080409620307936
scalar tree_4_3_u04_r12_network.node[11].content_store 	hits[11] 	2230
scalar tree_4_3_u04_r12_network.node[11].content_store 	misses[11] 	25503
scalar tree_4_3_u04_r12_network.node[11].content_store 	decision_yes[11] 	330
scalar tree_4_3_u04_r12_network.node[11].content_store 	decision_no[11] 	25173
scalar tree_4_3_u04_r12_network.node[11].content_store 	decision_ratio[11] 	0.012939654158334
scalar tree_4_3_u04_r12_network.node[12].core_layer 	interests[12] 	19056
scalar tree_4_3_u04_r12_network.node[12].core_layer 	data[12] 	17073
scalar tree_4_3_u04_r12_network.node[12].content_store 	p_hit[12] 	0.10406171284635
scalar tree_4_3_u04_r12_network.node[12].content_store 	hits[12] 	1983
scalar tree_4_3_u04_r12_network.node[12].content_store 	misses[12] 	17073
scalar tree_4_3_u04_r12_network.node[12].content_store 	decision_yes[12] 	200
scalar tree_4_3_u04_r12_network.node[12].content_store 	decision_no[12] 	16873
scalar tree_4_3_u04_r12_network.node[12].content_store 	decision_ratio[12] 	0.011714402858314
scalar tree_4_3_u04_r12_network.node[13].core_layer 	interests[13] 	12516
scalar tree_4_3_u04_r12_network.node[13].core_layer 	data[13] 	8753
scalar tree_4_3_u04_r12_network.node[13].content_store 	p_hit[13] 	0.30057526366251
scalar tree_4_3_u04_r12_network.node[13].content_store 	hits[13] 	3762
scalar tree_4_3_u04_r12_network.node[13].content_store 	misses[13] 	8754
scalar tree_4_3_u04_r12_network.node[13].content_store 	decision_yes[13] 	123
scalar tree_4_3_u04_r12_network.node[13].content_store 	decision_no[13] 	8630
scalar tree_4_3_u04_r12_network.node[13].content_store 	decision_ratio[13] 	0.014052324917171
scalar tree_4_3_u04_r12_network.node[14].core_layer 	interests[14] 	12474
scalar tree_4_3_u04_r12_network.node[14].core_layer 	data[14] 	8727
scalar tree_4_3_u04_r12_network.node[14].content_store 	p_hit[14] 	0.30046496713163
scalar tree_4_3_u04_r12_network.node[14].content_store 	hits[14] 	3748
scalar tree_4_3_u04_r12_network.node[14].content_store 	misses[14] 	8726
scalar tree_4_3_u04_r12_network.node[14].content_store 	decision_yes[14] 	96
scalar tree_4_3_u04_r12_network.node[14].content_store 	decision_no[14] 	8631
scalar tree_4_3_u04_r12_network.node[14].content_store 	decision_ratio[14] 	0.011000343760743
scalar tree_4_3_u04_r12_network.node[15].core_layer 	interests[15] 	12740
scalar tree_4_3_u04_r12_network.node[15].core_layer 	data[15] 	9008
scalar tree_4_3_u04_r12_network.node[15].content_store 	p_hit[15] 	0.29293563579278
scalar tree_4_3_u04_r12_network.node[15].content_store 	hits[15] 	3732
scalar tree_4_3_u04_r12_network.node[15].content_store 	misses[15] 	9008
scalar tree_4_3_u04_r12_network.node[15].content_store 	decision_yes[15] 	130
scalar tree_4_3_u04_r12_network.node[15].content_store 	decision_no[15] 	8878
scalar tree_4_3_u04_r12_network.node[15].content_store 	decision_ratio[15] 	0.01443161634103
scalar tree_4_3_u04_r12_network.node[16].core_layer 	interests[16] 	12690
scalar tree_4_3_u04_r12_network.node[16].core_layer 	data[16] 	8842
scalar tree_4_3_u04_r12_network.node[16].content_store 	p_hit[16] 	0.30323089046493
scalar tree_4_3_u04_r12_network.node[16].content_store 	hits[16] 	3848
scalar tree_4_3_u04_r12_network.node[16].content_store 	misses[16] 	8842
scalar tree_4_3_u04_r12_network.node[16].content_store 	decision_yes[16] 	112
scalar tree_4_3_u04_r12_network.node[16].content_store 	decision_no[16] 	8730
scalar tree_4_3_u04_r12_network.node[16].content_store 	decision_ratio[16] 	0.012666817462113
scalar tree_4_3_u04_r12_network.node[17].core_layer 	interests[17] 	12695
scalar tree_4_3_u04_r12_network.node[17].core_layer 	data[17] 	8842
scalar tree_4_3_u04_r12_network.node[17].content_store 	p_hit[17] 	0.30358408822371
scalar tree_4_3_u04_r12_network.node[17].content_store 	hits[17] 	3854
scalar tree_4_3_u04_r12_network.node[17].content_store 	misses[17] 	8841
scalar tree_4_3_u04_r12_network.node[17].content_store 	decision_yes[17] 	96
scalar tree_4_3_u04_r12_network.node[17].content_store 	decision_no[17] 	8746
scalar tree_4_3_u04_r12_network.node[17].content_store 	decision_ratio[17] 	0.010857272110382
scalar tree_4_3_u04_r12_network.node[18].core_layer 	interests[18] 	12451
scalar tree_4_3_u04_r12_network.node[18].core_layer 	data[18] 	8621
scalar tree_4_3_u04_r12_network.node[18].content_store 	p_hit[18] 	0.30760581479399
scalar tree_4_3_u04_r12_network.node[18].content_store 	hits[18] 	3830
scalar tree_4_3_u04_r12_network.node[18].content_store 	misses[18] 	8621
scalar tree_4_3_u04_r12_network.node[18].content_store 	decision_yes[18] 	120
scalar tree_4_3_u04_r12_network.node[18].content_store 	decision_no[18] 	8501
scalar tree_4_3_u04_r12_network.node[18].content_store 	decision_ratio[18] 	0.01391949889804
scalar tree_4_3_u04_r12_network.node[19].core_layer 	interests[19] 	12423
scalar tree_4_3_u04_r12_network.node[19].core_layer 	data[19] 	8871
scalar tree_4_3_u04_r12_network.node[19].content_store 	p_hit[19] 	0.28592127505433
scalar tree_4_3_u04_r12_network.node[19].content_store 	hits[19] 	3552
scalar tree_4_3_u04_r12_network.node[19].content_store 	misses[19] 	8871
scalar tree_4_3_u04_r12_network.node[19].content_store 	decision_yes[19] 	109
scalar tree_4_3_u04_r12_network.node[19].content_store 	decision_no[19] 	8762
scalar tree_4_3_u04_r12_network.node[19].content_store 	decision_ratio[19] 	0.012287228046443
scalar tree_4_3_u04_r12_network.node[20].core_layer 	interests[20] 	13040
scalar tree_4_3_u04_r12_network.node[20].core_layer 	data[20] 	8786
scalar tree_4_3_u04_r12_network.node[20].content_store 	p_hit[20] 	0.32615030674847
scalar tree_4_3_u04_r12_network.node[20].content_store 	hits[20] 	4253
scalar tree_4_3_u04_r12_network.node[20].content_store 	misses[20] 	8787
scalar tree_4_3_u04_r12_network.node[20].content_store 	decision_yes[20] 	121
scalar tree_4_3_u04_r12_network.node[20].content_store 	decision_no[20] 	8665
scalar tree_4_3_u04_r12_network.node[20].content_store 	decision_ratio[20] 	0.01377190985659
scalar tree_4_3_u04_r12_network.node[21].core_layer 	interests[21] 	12512
scalar tree_4_3_u04_r12_network.node[21].core_layer 	data[21] 	8851
scalar tree_4_3_u04_r12_network.node[21].content_store 	p_hit[21] 	0.29251918158568
scalar tree_4_3_u04_r12_network.node[21].content_store 	hits[21] 	3660
scalar tree_4_3_u04_r12_network.node[21].content_store 	misses[21] 	8852
scalar tree_4_3_u04_r12_network.node[21].content_store 	decision_yes[21] 	75
scalar tree_4_3_u04_r12_network.node[21].content_store 	decision_no[21] 	8776
scalar tree_4_3_u04_r12_network.node[21].content_store 	decision_ratio[21] 	0.0084736188001356
scalar tree_4_3_u04_r12_network.node[22].core_layer 	interests[22] 	12460
scalar tree_4_3_u04_r12_network.node[22].core_layer 	data[22] 	8627
scalar tree_4_3_u04_r12_network.node[22].content_store 	p_hit[22] 	0.30762439807384
scalar tree_4_3_u04_r12_network.node[22].content_store 	hits[22] 	3833
scalar tree_4_3_u04_r12_network.node[22].content_store 	misses[22] 	8627
scalar tree_4_3_u04_r12_network.node[22].content_store 	decision_yes[22] 	99
scalar tree_4_3_u04_r12_network.node[22].content_store 	decision_no[22] 	8528
scalar tree_4_3_u04_r12_network.node[22].content_store 	decision_ratio[22] 	0.011475599860902
scalar tree_4_3_u04_r12_network.node[23].core_layer 	interests[23] 	12749
scalar tree_4_3_u04_r12_network.node[23].core_layer 	data[23] 	8867
scalar tree_4_3_u04_r12_network.node[23].content_store 	p_hit[23] 	0.30457290767903
scalar tree_4_3_u04_r12_network.node[23].content_store 	hits[23] 	3883
scalar tree_4_3_u04_r12_network.node[23].content_store 	misses[23] 	8866
scalar tree_4_3_u04_r12_network.node[23].content_store 	decision_yes[23] 	127
scalar tree_4_3_u04_r12_network.node[23].content_store 	decision_no[23] 	8740
scalar tree_4_3_u04_r12_network.node[23].content_store 	decision_ratio[23] 	0.014322769820683
scalar tree_4_3_u04_r12_network.node[24].core_layer 	interests[24] 	12516
scalar tree_4_3_u04_r12_network.node[24].core_layer 	data[24] 	8527
scalar tree_4_3_u04_r12_network.node[24].content_store 	p_hit[24] 	0.31871204857782
scalar tree_4_3_u04_r12_network.node[24].content_store 	hits[24] 	3989
scalar tree_4_3_u04_r12_network.node[24].content_store 	misses[24] 	8527
scalar tree_4_3_u04_r12_network.node[24].content_store 	decision_yes[24] 	106
scalar tree_4_3_u04_r12_network.node[24].content_store 	decision_no[24] 	8421
scalar tree_4_3_u04_r12_network.node[24].content_store 	decision_ratio[24] 	0.012431101207928
scalar tree_4_3_u04_r12_network.node[25].core_layer 	interests[25] 	12763
scalar tree_4_3_u04_r12_network.node[25].core_layer 	data[25] 	8712
scalar tree_4_3_u04_r12_network.node[25].content_store 	p_hit[25] 	0.31740186476534
scalar tree_4_3_u04_r12_network.node[25].content_store 	hits[25] 	4051
scalar tree_4_3_u04_r12_network.node[25].content_store 	misses[25] 	8712
scalar tree_4_3_u04_r12_network.node[25].content_store 	decision_yes[25] 	110
scalar tree_4_3_u04_r12_network.node[25].content_store 	decision_no[25] 	8602
scalar tree_4_3_u04_r12_network.node[25].content_store 	decision_ratio[25] 	0.012626262626263
scalar tree_4_3_u04_r12_network.node[26].core_layer 	interests[26] 	12216
scalar tree_4_3_u04_r12_network.node[26].core_layer 	data[26] 	8803
scalar tree_4_3_u04_r12_network.node[26].content_store 	p_hit[26] 	0.27938768827767
scalar tree_4_3_u04_r12_network.node[26].content_store 	hits[26] 	3413
scalar tree_4_3_u04_r12_network.node[26].content_store 	misses[26] 	8803
scalar tree_4_3_u04_r12_network.node[26].content_store 	decision_yes[26] 	116
scalar tree_4_3_u04_r12_network.node[26].content_store 	decision_no[26] 	8687
scalar tree_4_3_u04_r12_network.node[26].content_store 	decision_ratio[26] 	0.013177325911621
scalar tree_4_3_u04_r12_network.node[27].core_layer 	interests[27] 	13003
scalar tree_4_3_u04_r12_network.node[27].core_layer 	data[27] 	8891
scalar tree_4_3_u04_r12_network.node[27].content_store 	p_hit[27] 	0.31623471506575
scalar tree_4_3_u04_r12_network.node[27].content_store 	hits[27] 	4112
scalar tree_4_3_u04_r12_network.node[27].content_store 	misses[27] 	8891
scalar tree_4_3_u04_r12_network.node[27].content_store 	decision_yes[27] 	129
scalar tree_4_3_u04_r12_network.node[27].content_store 	decision_no[27] 	8762
scalar tree_4_3_u04_r12_network.node[27].content_store 	decision_ratio[27] 	0.014509054099651
scalar tree_4_3_u04_r12_network.node[28].core_layer 	interests[28] 	13510
scalar tree_4_3_u04_r12_network.node[28].core_layer 	data[28] 	8928
scalar tree_4_3_u04_r12_network.node[28].content_store 	p_hit[28] 	0.33915618060696
scalar tree_4_3_u04_r12_network.node[28].content_store 	hits[28] 	4582
scalar tree_4_3_u04_r12_network.node[28].content_store 	misses[28] 	8928
scalar tree_4_3_u04_r12_network.node[28].content_store 	decision_yes[28] 	128
scalar tree_4_3_u04_r12_network.node[28].content_store 	decision_no[28] 	8800
scalar tree_4_3_u04_r12_network.node[28].content_store 	decision_ratio[28] 	0.014336917562724
scalar tree_4_3_u04_r12_network.node[29].core_layer 	interests[29] 	12589
scalar tree_4_3_u04_r12_network.node[29].core_layer 	data[29] 	8856
scalar tree_4_3_u04_r12_network.node[29].content_store 	p_hit[29] 	0.29652871554532
scalar tree_4_3_u04_r12_network.node[29].content_store 	hits[29] 	3733
scalar tree_4_3_u04_r12_network.node[29].content_store 	misses[29] 	8856
scalar tree_4_3_u04_r12_network.node[29].content_store 	decision_yes[29] 	111
scalar tree_4_3_u04_r12_network.node[29].content_store 	decision_no[29] 	8745
scalar tree_4_3_u04_r12_network.node[29].content_store 	decision_ratio[29] 	0.012533875338753
scalar tree_4_3_u04_r12_network.node[30].core_layer 	interests[30] 	12348
scalar tree_4_3_u04_r12_network.node[30].core_layer 	data[30] 	8620
scalar tree_4_3_u04_r12_network.node[30].content_store 	p_hit[30] 	0.30191124068675
scalar tree_4_3_u04_r12_network.node[30].content_store 	hits[30] 	3728
scalar tree_4_3_u04_r12_network.node[30].content_store 	misses[30] 	8620
scalar tree_4_3_u04_r12_network.node[30].content_store 	decision_yes[30] 	119
scalar tree_4_3_u04_r12_network.node[30].content_store 	decision_no[30] 	8501
scalar tree_4_3_u04_r12_network.node[30].content_store 	decision_ratio[30] 	0.013805104408353
scalar tree_4_3_u04_r12_network.node[31].core_layer 	interests[31] 	12591
scalar tree_4_3_u04_r12_network.node[31].core_layer 	data[31] 	8788
scalar tree_4_3_u04_r12_network.node[31].content_store 	p_hit[31] 	0.30204114049718
scalar tree_4_3_u04_r12_network.node[31].content_store 	hits[31] 	3803
scalar tree_4_3_u04_r12_network.node[31].content_store 	misses[31] 	8788
scalar tree_4_3_u04_r12_network.node[31].content_store 	decision_yes[31] 	110
scalar tree_4_3_u04_r12_network.node[31].content_store 	decision_no[31] 	8678
scalar tree_4_3_u04_r12_network.node[31].content_store 	decision_ratio[31] 	0.012517068730086
scalar tree_4_3_u04_r12_network.node[32].core_layer 	interests[32] 	13398
scalar tree_4_3_u04_r12_network.node[32].core_layer 	data[32] 	9039
scalar tree_4_3_u04_r12_network.node[32].content_store 	p_hit[32] 	0.32534706672638
scalar tree_4_3_u04_r12_network.node[32].content_store 	hits[32] 	4359
scalar tree_4_3_u04_r12_network.node[32].content_store 	misses[32] 	9039
scalar tree_4_3_u04_r12_network.node[32].content_store 	decision_yes[32] 	120
scalar tree_4_3_u04_r12_network.node[32].content_store 	decision_no[32] 	8919
scalar tree_4_3_u04_r12_network.node[32].content_store 	decision_ratio[32] 	0.013275804845669
scalar tree_4_3_u04_r12_network.node[33].core_layer 	interests[33] 	12607
scalar tree_4_3_u04_r12_network.node[33].core_layer 	data[33] 	8797
scalar tree_4_3_u04_r12_network.node[33].content_store 	p_hit[33] 	0.3022130562386
scalar tree_4_3_u04_r12_network.node[33].content_store 	hits[33] 	3810
scalar tree_4_3_u04_r12_network.node[33].content_store 	misses[33] 	8797
scalar tree_4_3_u04_r12_network.node[33].content_store 	decision_yes[33] 	103
scalar tree_4_3_u04_r12_network.node[33].content_store 	decision_no[33] 	8694
scalar tree_4_3_u04_r12_network.node[33].content_store 	decision_ratio[33] 	0.01170853700125
scalar tree_4_3_u04_r12_network.node[34].core_layer 	interests[34] 	12317
scalar tree_4_3_u04_r12_network.node[34].core_layer 	data[34] 	8704
scalar tree_4_3_u04_r12_network.node[34].content_store 	p_hit[34] 	0.29333441584801
scalar tree_4_3_u04_r12_network.node[34].content_store 	hits[34] 	3613
scalar tree_4_3_u04_r12_network.node[34].content_store 	misses[34] 	8704
scalar tree_4_3_u04_r12_network.node[34].content_store 	decision_yes[34] 	108
scalar tree_4_3_u04_r12_network.node[34].content_store 	decision_no[34] 	8596
scalar tree_4_3_u04_r12_network.node[34].content_store 	decision_ratio[34] 	0.012408088235294
scalar tree_4_3_u04_r12_network.node[35].core_layer 	interests[35] 	12309
scalar tree_4_3_u04_r12_network.node[35].core_layer 	data[35] 	8660
scalar tree_4_3_u04_r12_network.node[35].content_store 	p_hit[35] 	0.29644975221383
scalar tree_4_3_u04_r12_network.node[35].content_store 	hits[35] 	3649
scalar tree_4_3_u04_r12_network.node[35].content_store 	misses[35] 	8660
scalar tree_4_3_u04_r12_network.node[35].content_store 	decision_yes[35] 	130
scalar tree_4_3_u04_r12_network.node[35].content_store 	decision_no[35] 	8530
scalar tree_4_3_u04_r12_network.node[35].content_store 	decision_ratio[35] 	0.015011547344111
scalar tree_4_3_u04_r12_network.node[36].core_layer 	interests[36] 	12446
scalar tree_4_3_u04_r12_network.node[36].core_layer 	data[36] 	8773
scalar tree_4_3_u04_r12_network.node[36].content_store 	p_hit[36] 	0.29511489635224
scalar tree_4_3_u04_r12_network.node[36].content_store 	hits[36] 	3673
scalar tree_4_3_u04_r12_network.node[36].content_store 	misses[36] 	8773
scalar tree_4_3_u04_r12_network.node[36].content_store 	decision_yes[36] 	111
scalar tree_4_3_u04_r12_network.node[36].content_store 	decision_no[36] 	8662
scalar tree_4_3_u04_r12_network.node[36].content_store 	decision_ratio[36] 	0.012652456400319
scalar tree_4_3_u04_r12_network.node[37].core_layer 	interests[37] 	13005
scalar tree_4_3_u04_r12_network.node[37].core_layer 	data[37] 	8702
scalar tree_4_3_u04_r12_network.node[37].content_store 	p_hit[37] 	0.33087274125336
scalar tree_4_3_u04_r12_network.node[37].content_store 	hits[37] 	4303
scalar tree_4_3_u04_r12_network.node[37].content_store 	misses[37] 	8702
scalar tree_4_3_u04_r12_network.node[37].content_store 	decision_yes[37] 	113
scalar tree_4_3_u04_r12_network.node[37].content_store 	decision_no[37] 	8589
scalar tree_4_3_u04_r12_network.node[37].content_store 	decision_ratio[37] 	0.012985520569984
scalar tree_4_3_u04_r12_network.node[38].core_layer 	interests[38] 	12307
scalar tree_4_3_u04_r12_network.node[38].core_layer 	data[38] 	8678
scalar tree_4_3_u04_r12_network.node[38].content_store 	p_hit[38] 	0.29487283659706
scalar tree_4_3_u04_r12_network.node[38].content_store 	hits[38] 	3629
scalar tree_4_3_u04_r12_network.node[38].content_store 	misses[38] 	8678
scalar tree_4_3_u04_r12_network.node[38].content_store 	decision_yes[38] 	105
scalar tree_4_3_u04_r12_network.node[38].content_store 	decision_no[38] 	8573
scalar tree_4_3_u04_r12_network.node[38].content_store 	decision_ratio[38] 	0.012099562111086
scalar tree_4_3_u04_r12_network.node[39].core_layer 	interests[39] 	12337
scalar tree_4_3_u04_r12_network.node[39].core_layer 	data[39] 	8799
scalar tree_4_3_u04_r12_network.node[39].content_store 	p_hit[39] 	0.28677960606306
scalar tree_4_3_u04_r12_network.node[39].content_store 	hits[39] 	3538
scalar tree_4_3_u04_r12_network.node[39].content_store 	misses[39] 	8799
scalar tree_4_3_u04_r12_network.node[39].content_store 	decision_yes[39] 	105
scalar tree_4_3_u04_r12_network.node[39].content_store 	decision_no[39] 	8694
scalar tree_4_3_u04_r12_network.node[39].content_store 	decision_ratio[39] 	0.011933174224344
scalar tree_4_3_u04_r12_network.client[13] 	hdistance[13] 	2.6793778223783
scalar tree_4_3_u04_r12_network.client[13] 	downloads[13] 	11958
scalar tree_4_3_u04_r12_network.client[13] 	avg_time[13] 	0.004206356473
scalar tree_4_3_u04_r12_network.client[14] 	hdistance[14] 	2.6792089164502
scalar tree_4_3_u04_r12_network.client[14] 	downloads[14] 	11933
scalar tree_4_3_u04_r12_network.client[14] 	avg_time[14] 	0.004208662089
scalar tree_4_3_u04_r12_network.client[15] 	hdistance[15] 	2.6983125819135
scalar tree_4_3_u04_r12_network.client[15] 	downloads[15] 	12208
scalar tree_4_3_u04_r12_network.client[15] 	avg_time[15] 	0.004243280047
scalar tree_4_3_u04_r12_network.client[16] 	hdistance[16] 	2.6427442827443
scalar tree_4_3_u04_r12_network.client[16] 	downloads[16] 	12025
scalar tree_4_3_u04_r12_network.client[16] 	avg_time[16] 	0.004169976202
scalar tree_4_3_u04_r12_network.client[17] 	hdistance[17] 	2.6430299491115
scalar tree_4_3_u04_r12_network.client[17] 	downloads[17] 	11987
scalar tree_4_3_u04_r12_network.client[17] 	avg_time[17] 	0.004168346049
scalar tree_4_3_u04_r12_network.client[18] 	hdistance[18] 	2.6204175152749
scalar tree_4_3_u04_r12_network.client[18] 	downloads[18] 	11784
scalar tree_4_3_u04_r12_network.client[18] 	avg_time[18] 	0.004137471647
scalar tree_4_3_u04_r12_network.client[19] 	hdistance[19] 	2.6973596811691
scalar tree_4_3_u04_r12_network.client[19] 	downloads[19] 	12044
scalar tree_4_3_u04_r12_network.client[19] 	avg_time[19] 	0.004232976041
scalar tree_4_3_u04_r12_network.client[20] 	hdistance[20] 	2.5903815646656
scalar tree_4_3_u04_r12_network.client[20] 	downloads[20] 	11977
scalar tree_4_3_u04_r12_network.client[20] 	avg_time[20] 	0.004070131396
scalar tree_4_3_u04_r12_network.client[21] 	hdistance[21] 	2.678612716763
scalar tree_4_3_u04_r12_network.client[21] 	downloads[21] 	12110
scalar tree_4_3_u04_r12_network.client[21] 	avg_time[21] 	0.004205006538
scalar tree_4_3_u04_r12_network.client[22] 	hdistance[22] 	2.6238866740182
scalar tree_4_3_u04_r12_network.client[22] 	downloads[22] 	11789
scalar tree_4_3_u04_r12_network.client[22] 	avg_time[22] 	0.004126555706
scalar tree_4_3_u04_r12_network.client[23] 	hdistance[23] 	2.6120218579235
scalar tree_4_3_u04_r12_network.client[23] 	downloads[23] 	12078
scalar tree_4_3_u04_r12_network.client[23] 	avg_time[23] 	0.004120351945
scalar tree_4_3_u04_r12_network.client[24] 	hdistance[24] 	2.5895929143246
scalar tree_4_3_u04_r12_network.client[24] 	downloads[24] 	11742
scalar tree_4_3_u04_r12_network.client[24] 	avg_time[24] 	0.004080732904
scalar tree_4_3_u04_r12_network.client[25] 	hdistance[25] 	2.6025065627911
scalar tree_4_3_u04_r12_network.client[25] 	downloads[25] 	11809
scalar tree_4_3_u04_r12_network.client[25] 	avg_time[25] 	0.004077395656
scalar tree_4_3_u04_r12_network.client[26] 	hdistance[26] 	2.68609754078
scalar tree_4_3_u04_r12_network.client[26] 	downloads[26] 	12077
scalar tree_4_3_u04_r12_network.client[26] 	avg_time[26] 	0.004203358725
scalar tree_4_3_u04_r12_network.client[27] 	hdistance[27] 	2.5854461639776
scalar tree_4_3_u04_r12_network.client[27] 	downloads[27] 	12148
scalar tree_4_3_u04_r12_network.client[27] 	avg_time[27] 	0.004053997635
scalar tree_4_3_u04_r12_network.client[28] 	hdistance[28] 	2.5654967869501
scalar tree_4_3_u04_r12_network.client[28] 	downloads[28] 	12138
scalar tree_4_3_u04_r12_network.client[28] 	avg_time[28] 	0.004032786554
scalar tree_4_3_u04_r12_network.client[29] 	hdistance[29] 	2.620666941128
scalar tree_4_3_u04_r12_network.client[29] 	downloads[29] 	12145
scalar tree_4_3_u04_r12_network.client[29] 	avg_time[29] 	0.00412696279
scalar tree_4_3_u04_r12_network.client[30] 	hdistance[30] 	2.60068832368
scalar tree_4_3_u04_r12_network.client[30] 	downloads[30] 	11913
scalar tree_4_3_u04_r12_network.client[30] 	avg_time[30] 	0.004092501006
scalar tree_4_3_u04_r12_network.client[31] 	hdistance[31] 	2.654463011168
scalar tree_4_3_u04_r12_network.client[31] 	downloads[31] 	11909
scalar tree_4_3_u04_r12_network.client[31] 	avg_time[31] 	0.004187754198
scalar tree_4_3_u04_r12_network.client[32] 	hdistance[32] 	2.6049057535599
scalar tree_4_3_u04_r12_network.client[32] 	downloads[32] 	12149
scalar tree_4_3_u04_r12_network.client[32] 	avg_time[32] 	0.004094654945
scalar tree_4_3_u04_r12_network.client[33] 	hdistance[33] 	2.6403846153846
scalar tree_4_3_u04_r12_network.client[33] 	downloads[33] 	11960
scalar tree_4_3_u04_r12_network.client[33] 	avg_time[33] 	0.004163207725
scalar tree_4_3_u04_r12_network.client[34] 	hdistance[34] 	2.6923466801825
scalar tree_4_3_u04_r12_network.client[34] 	downloads[34] 	11838
scalar tree_4_3_u04_r12_network.client[34] 	avg_time[34] 	0.004192766075
scalar tree_4_3_u04_r12_network.client[35] 	hdistance[35] 	2.6666666666667
scalar tree_4_3_u04_r12_network.client[35] 	downloads[35] 	11820
scalar tree_4_3_u04_r12_network.client[35] 	avg_time[35] 	0.004160233952
scalar tree_4_3_u04_r12_network.client[36] 	hdistance[36] 	2.6757838559039
scalar tree_4_3_u04_r12_network.client[36] 	downloads[36] 	11992
scalar tree_4_3_u04_r12_network.client[36] 	avg_time[36] 	0.004169943602
scalar tree_4_3_u04_r12_network.client[37] 	hdistance[37] 	2.5918298446995
scalar tree_4_3_u04_r12_network.client[37] 	downloads[37] 	11848
scalar tree_4_3_u04_r12_network.client[37] 	avg_time[37] 	0.004066168523
scalar tree_4_3_u04_r12_network.client[38] 	hdistance[38] 	2.6623235613464
scalar tree_4_3_u04_r12_network.client[38] 	downloads[38] 	11973
scalar tree_4_3_u04_r12_network.client[38] 	avg_time[38] 	0.004157016961
scalar tree_4_3_u04_r12_network.client[39] 	hdistance[39] 	2.7006327006327
scalar tree_4_3_u04_r12_network.client[39] 	downloads[39] 	12012
scalar tree_4_3_u04_r12_network.client[39] 	avg_time[39] 	0.004211785182
