version 2
run General-10-20160825-16:56:20-3010
attr D fix0.05
attr F nrr
attr R lru
attr a 0.9
attr configname General
attr datetime 20160825-16:56:20
attr experiment General
attr inifile hw5115/scenario_C/omnetp.ini
attr iterationvars "$net=level3, $rep=2, $a=0.9, $F=nrr, $D=fix0.05, $R=lru, $window=60, $variance=0.05, $mytime=600"
attr iterationvars2 "$net=level3, $rep=2, $a=0.9, $F=nrr, $D=fix0.05, $R=lru, $window=60, $variance=0.05, $mytime=600, $repetition=0"
attr measurement "$net=level3, $rep=2, $a=0.9, $F=nrr, $D=fix0.05, $R=lru, $window=60, $variance=0.05, $mytime=600"
attr mytime 600
attr net level3
attr network networks.${net=level3}_network
attr processid 3010
attr rep 2
attr repetition 0
attr replication #0
attr resultdir results
attr runnumber 10
attr seedset 2
attr variance 0.05
attr window 60

scalar . 	a 	0.9
scalar . 	mytime 	600
scalar . 	rep 	2
scalar . 	variance 	0.05
scalar . 	window 	60
scalar level3_network.content_distribution 	repo-0 	4
scalar level3_network.content_distribution 	repo-1 	25
scalar level3_network.content_distribution 	repo-2 	3
scalar level3_network.content_distribution 	repo-3 	19
scalar level3_network.content_distribution 	repo-4 	23
scalar level3_network.content_distribution 	repo-5 	39
scalar level3_network.content_distribution 	repo-6 	28
scalar level3_network.content_distribution 	repo-7 	14
scalar level3_network.content_distribution 	repo-8 	8
scalar level3_network.content_distribution 	repo-9 	42
scalar level3_network.content_distribution 	repo-10 	26
scalar level3_network.content_distribution 	repo-11 	38
scalar level3_network.content_distribution 	repo-12 	7
scalar level3_network.content_distribution 	repo-13 	44
scalar level3_network.content_distribution 	repo-14 	0
scalar level3_network.content_distribution 	repo-15 	11
scalar level3_network.content_distribution 	client-0 	21
scalar level3_network.content_distribution 	client-1 	9
scalar level3_network.content_distribution 	client-2 	38
scalar level3_network.content_distribution 	client-3 	2
scalar level3_network.content_distribution 	client-4 	30
scalar level3_network.content_distribution 	client-5 	8
scalar level3_network.content_distribution 	client-6 	23
scalar level3_network.content_distribution 	client-7 	32
scalar level3_network.content_distribution 	client-8 	40
scalar level3_network.content_distribution 	client-9 	42
scalar level3_network.content_distribution 	client-10 	45
scalar level3_network.content_distribution 	client-11 	33
scalar level3_network.content_distribution 	client-12 	28
scalar level3_network.content_distribution 	client-13 	3
scalar level3_network.content_distribution 	client-14 	15
scalar level3_network.content_distribution 	client-15 	34
scalar level3_network.content_distribution 	client-16 	31
scalar level3_network.content_distribution 	client-17 	17
scalar level3_network.content_distribution 	client-18 	25
scalar level3_network.content_distribution 	client-19 	12
scalar level3_network.content_distribution 	client-20 	22
scalar level3_network.content_distribution 	client-21 	11
scalar level3_network.content_distribution 	client-22 	6
scalar level3_network.content_distribution 	client-23 	39
scalar level3_network.content_distribution 	client-24 	7
scalar level3_network.content_distribution 	client-25 	18
scalar level3_network.content_distribution 	client-26 	36
scalar level3_network.content_distribution 	client-27 	27
scalar level3_network.content_distribution 	client-28 	43
scalar level3_network.content_distribution 	client-29 	37
scalar level3_network.content_distribution 	client-30 	4
scalar level3_network.content_distribution 	client-31 	14
scalar level3_network.content_distribution 	repo-0_card 	6237
scalar level3_network.content_distribution 	repo-0_price 	0
scalar level3_network.content_distribution 	repo-1_card 	6124
scalar level3_network.content_distribution 	repo-1_price 	0
scalar level3_network.content_distribution 	repo-2_card 	6218
scalar level3_network.content_distribution 	repo-2_price 	0
scalar level3_network.content_distribution 	repo-3_card 	6259
scalar level3_network.content_distribution 	repo-3_price 	0
scalar level3_network.content_distribution 	repo-4_card 	6179
scalar level3_network.content_distribution 	repo-4_price 	0
scalar level3_network.content_distribution 	repo-5_card 	6255
scalar level3_network.content_distribution 	repo-5_price 	0
scalar level3_network.content_distribution 	repo-6_card 	6347
scalar level3_network.content_distribution 	repo-6_price 	0
scalar level3_network.content_distribution 	repo-7_card 	6287
scalar level3_network.content_distribution 	repo-7_price 	0
scalar level3_network.content_distribution 	repo-8_card 	6392
scalar level3_network.content_distribution 	repo-8_price 	0
scalar level3_network.content_distribution 	repo-9_card 	6213
scalar level3_network.content_distribution 	repo-9_price 	0
scalar level3_network.content_distribution 	repo-10_card 	6264
scalar level3_network.content_distribution 	repo-10_price 	0
scalar level3_network.content_distribution 	repo-11_card 	6216
scalar level3_network.content_distribution 	repo-11_price 	0
scalar level3_network.content_distribution 	repo-12_card 	6289
scalar level3_network.content_distribution 	repo-12_price 	0
scalar level3_network.content_distribution 	repo-13_card 	6209
scalar level3_network.content_distribution 	repo-13_price 	0
scalar level3_network.content_distribution 	repo-14_card 	6400
scalar level3_network.content_distribution 	repo-14_price 	0
scalar level3_network.content_distribution 	repo-15_card 	6111
scalar level3_network.content_distribution 	repo-15_price 	0
scalar level3_network.statistics 	stabilization_time 	1902.1
scalar level3_network.statistics 	p_hit 	0.25783575197285
scalar level3_network.statistics 	interests 	19234.826086957
scalar level3_network.statistics 	data 	10892.826086957
scalar level3_network.statistics 	hdistance 	1.8400801736375
scalar level3_network.statistics 	avg_time 	0.032473653418
scalar level3_network.statistics 	downloads 	383690
scalar level3_network.statistics 	total_cost 	0
scalar level3_network.statistics 	total_replicas 	100000
scalar level3_network.statistics 	inner_hit 	0.46632698272043
scalar level3_network.node[0].core_layer 	interests[0] 	13083
scalar level3_network.node[0].core_layer 	repo_load[0] 	11893
scalar level3_network.node[0].core_layer 	data[0] 	0
scalar level3_network.node[0].core_layer 	repo_int[0] 	204765
scalar level3_network.node[0].content_store 	p_hit[0] 	0.09095773140717
scalar level3_network.node[0].content_store 	hits[0] 	1190
scalar level3_network.node[0].content_store 	misses[0] 	11893
scalar level3_network.node[0].content_store 	decision_yes[0] 	589
scalar level3_network.node[0].content_store 	decision_no[0] 	11304
scalar level3_network.node[0].content_store 	decision_ratio[0] 	0.049524930631464
scalar level3_network.node[1].core_layer 	interests[1] 	0
scalar level3_network.node[1].core_layer 	data[1] 	0
scalar level3_network.node[1].content_store 	p_hit[1] 	-nan
scalar level3_network.node[1].content_store 	hits[1] 	0
scalar level3_network.node[1].content_store 	misses[1] 	0
scalar level3_network.node[1].content_store 	decision_yes[1] 	0
scalar level3_network.node[1].content_store 	decision_no[1] 	0
scalar level3_network.node[1].content_store 	decision_ratio[1] 	0
scalar level3_network.node[2].core_layer 	interests[2] 	33124
scalar level3_network.node[2].core_layer 	data[2] 	28259
scalar level3_network.node[2].content_store 	p_hit[2] 	0.14678178963893
scalar level3_network.node[2].content_store 	hits[2] 	4862
scalar level3_network.node[2].content_store 	misses[2] 	28262
scalar level3_network.node[2].content_store 	decision_yes[2] 	1429
scalar level3_network.node[2].content_store 	decision_no[2] 	26830
scalar level3_network.node[2].content_store 	decision_ratio[2] 	0.050567960649705
scalar level3_network.node[3].core_layer 	interests[3] 	46236
scalar level3_network.node[3].core_layer 	repo_load[3] 	13285
scalar level3_network.node[3].core_layer 	data[3] 	28484
scalar level3_network.node[3].content_store 	p_hit[3] 	0.096504887966087
scalar level3_network.node[3].content_store 	hits[3] 	4462
scalar level3_network.node[3].content_store 	misses[3] 	41774
scalar level3_network.node[3].content_store 	decision_yes[3] 	2069
scalar level3_network.node[3].content_store 	decision_no[3] 	39699
scalar level3_network.node[3].content_store 	decision_ratio[3] 	0.049535529592032
scalar level3_network.node[4].core_layer 	interests[4] 	26226
scalar level3_network.node[4].core_layer 	repo_load[4] 	13140
scalar level3_network.node[4].core_layer 	data[4] 	9186
scalar level3_network.node[4].content_store 	p_hit[4] 	0.14855486921376
scalar level3_network.node[4].content_store 	hits[4] 	3896
scalar level3_network.node[4].content_store 	misses[4] 	22330
scalar level3_network.node[4].content_store 	decision_yes[4] 	1060
scalar level3_network.node[4].content_store 	decision_no[4] 	21266
scalar level3_network.node[4].content_store 	decision_ratio[4] 	0.047478276448983
scalar level3_network.node[5].core_layer 	interests[5] 	6496
scalar level3_network.node[5].core_layer 	data[5] 	2390
scalar level3_network.node[5].content_store 	p_hit[5] 	0.63208128078818
scalar level3_network.node[5].content_store 	hits[5] 	4106
scalar level3_network.node[5].content_store 	misses[5] 	2390
scalar level3_network.node[5].content_store 	decision_yes[5] 	123
scalar level3_network.node[5].content_store 	decision_no[5] 	2267
scalar level3_network.node[5].content_store 	decision_ratio[5] 	0.051464435146444
scalar level3_network.node[6].core_layer 	interests[6] 	13934
scalar level3_network.node[6].core_layer 	data[6] 	9471
scalar level3_network.node[6].content_store 	p_hit[6] 	0.32015214583034
scalar level3_network.node[6].content_store 	hits[6] 	4461
scalar level3_network.node[6].content_store 	misses[6] 	9473
scalar level3_network.node[6].content_store 	decision_yes[6] 	476
scalar level3_network.node[6].content_store 	decision_no[6] 	8995
scalar level3_network.node[6].content_store 	decision_ratio[6] 	0.050258684405026
scalar level3_network.node[7].core_layer 	interests[7] 	117964
scalar level3_network.node[7].core_layer 	repo_load[7] 	14455
scalar level3_network.node[7].core_layer 	data[7] 	99240
scalar level3_network.node[7].content_store 	p_hit[7] 	0.035790580177003
scalar level3_network.node[7].content_store 	hits[7] 	4222
scalar level3_network.node[7].content_store 	misses[7] 	113742
scalar level3_network.node[7].content_store 	decision_yes[7] 	5661
scalar level3_network.node[7].content_store 	decision_no[7] 	108034
scalar level3_network.node[7].content_store 	decision_ratio[7] 	0.049791107788381
scalar level3_network.node[8].core_layer 	interests[8] 	44408
scalar level3_network.node[8].core_layer 	repo_load[8] 	13662
scalar level3_network.node[8].core_layer 	data[8] 	22137
scalar level3_network.node[8].content_store 	p_hit[8] 	0.19377139254188
scalar level3_network.node[8].content_store 	hits[8] 	8605
scalar level3_network.node[8].content_store 	misses[8] 	35803
scalar level3_network.node[8].content_store 	decision_yes[8] 	1835
scalar level3_network.node[8].content_store 	decision_no[8] 	33963
scalar level3_network.node[8].content_store 	decision_ratio[8] 	0.051259846918822
scalar level3_network.node[9].core_layer 	interests[9] 	17327
scalar level3_network.node[9].core_layer 	data[9] 	9322
scalar level3_network.node[9].content_store 	p_hit[9] 	0.46199572920875
scalar level3_network.node[9].content_store 	hits[9] 	8005
scalar level3_network.node[9].content_store 	misses[9] 	9322
scalar level3_network.node[9].content_store 	decision_yes[9] 	408
scalar level3_network.node[9].content_store 	decision_no[9] 	8914
scalar level3_network.node[9].content_store 	decision_ratio[9] 	0.04376743188157
scalar level3_network.node[10].core_layer 	interests[10] 	0
scalar level3_network.node[10].core_layer 	data[10] 	0
scalar level3_network.node[10].content_store 	p_hit[10] 	-nan
scalar level3_network.node[10].content_store 	hits[10] 	0
scalar level3_network.node[10].content_store 	misses[10] 	0
scalar level3_network.node[10].content_store 	decision_yes[10] 	0
scalar level3_network.node[10].content_store 	decision_no[10] 	0
scalar level3_network.node[10].content_store 	decision_ratio[10] 	0
scalar level3_network.node[11].core_layer 	interests[11] 	81046
scalar level3_network.node[11].core_layer 	repo_load[11] 	13352
scalar level3_network.node[11].core_layer 	data[11] 	61974
scalar level3_network.node[11].content_store 	p_hit[11] 	0.070231720257631
scalar level3_network.node[11].content_store 	hits[11] 	5692
scalar level3_network.node[11].content_store 	misses[11] 	75354
scalar level3_network.node[11].content_store 	decision_yes[11] 	3690
scalar level3_network.node[11].content_store 	decision_no[11] 	71635
scalar level3_network.node[11].content_store 	decision_ratio[11] 	0.048987719880518
scalar level3_network.node[12].core_layer 	interests[12] 	13962
scalar level3_network.node[12].core_layer 	data[12] 	9476
scalar level3_network.node[12].content_store 	p_hit[12] 	0.32130067325598
scalar level3_network.node[12].content_store 	hits[12] 	4486
scalar level3_network.node[12].content_store 	misses[12] 	9476
scalar level3_network.node[12].content_store 	decision_yes[12] 	507
scalar level3_network.node[12].content_store 	decision_no[12] 	8969
scalar level3_network.node[12].content_store 	decision_ratio[12] 	0.053503588011819
scalar level3_network.node[13].core_layer 	interests[13] 	0
scalar level3_network.node[13].core_layer 	data[13] 	0
scalar level3_network.node[13].content_store 	p_hit[13] 	-nan
scalar level3_network.node[13].content_store 	hits[13] 	0
scalar level3_network.node[13].content_store 	misses[13] 	0
scalar level3_network.node[13].content_store 	decision_yes[13] 	0
scalar level3_network.node[13].content_store 	decision_no[13] 	0
scalar level3_network.node[13].content_store 	decision_ratio[13] 	0
scalar level3_network.node[14].core_layer 	interests[14] 	26107
scalar level3_network.node[14].core_layer 	repo_load[14] 	12855
scalar level3_network.node[14].core_layer 	data[14] 	9202
scalar level3_network.node[14].content_store 	p_hit[14] 	0.15505420002298
scalar level3_network.node[14].content_store 	hits[14] 	4048
scalar level3_network.node[14].content_store 	misses[14] 	22059
scalar level3_network.node[14].content_store 	decision_yes[14] 	1106
scalar level3_network.node[14].content_store 	decision_no[14] 	20951
scalar level3_network.node[14].content_store 	decision_ratio[14] 	0.050142811805776
scalar level3_network.node[15].core_layer 	interests[15] 	14182
scalar level3_network.node[15].core_layer 	data[15] 	9554
scalar level3_network.node[15].content_store 	p_hit[15] 	0.32618812579326
scalar level3_network.node[15].content_store 	hits[15] 	4626
scalar level3_network.node[15].content_store 	misses[15] 	9556
scalar level3_network.node[15].content_store 	decision_yes[15] 	508
scalar level3_network.node[15].content_store 	decision_no[15] 	9046
scalar level3_network.node[15].content_store 	decision_ratio[15] 	0.053171446514549
scalar level3_network.node[16].core_layer 	interests[16] 	0
scalar level3_network.node[16].core_layer 	data[16] 	0
scalar level3_network.node[16].content_store 	p_hit[16] 	-nan
scalar level3_network.node[16].content_store 	hits[16] 	0
scalar level3_network.node[16].content_store 	misses[16] 	0
scalar level3_network.node[16].content_store 	decision_yes[16] 	0
scalar level3_network.node[16].content_store 	decision_no[16] 	0
scalar level3_network.node[16].content_store 	decision_ratio[16] 	0
scalar level3_network.node[17].core_layer 	interests[17] 	22811
scalar level3_network.node[17].core_layer 	data[17] 	9066
scalar level3_network.node[17].content_store 	p_hit[17] 	0.60260400683881
scalar level3_network.node[17].content_store 	hits[17] 	13746
scalar level3_network.node[17].content_store 	misses[17] 	9065
scalar level3_network.node[17].content_store 	decision_yes[17] 	457
scalar level3_network.node[17].content_store 	decision_no[17] 	8609
scalar level3_network.node[17].content_store 	decision_ratio[17] 	0.050408118243989
scalar level3_network.node[18].core_layer 	interests[18] 	32155
scalar level3_network.node[18].core_layer 	data[18] 	15882
scalar level3_network.node[18].content_store 	p_hit[18] 	0.50580003109936
scalar level3_network.node[18].content_store 	hits[18] 	16264
scalar level3_network.node[18].content_store 	misses[18] 	15891
scalar level3_network.node[18].content_store 	decision_yes[18] 	786
scalar level3_network.node[18].content_store 	decision_no[18] 	15096
scalar level3_network.node[18].content_store 	decision_ratio[18] 	0.049489988666415
scalar level3_network.node[19].core_layer 	interests[19] 	13111
scalar level3_network.node[19].core_layer 	repo_load[19] 	11805
scalar level3_network.node[19].core_layer 	data[19] 	0
scalar level3_network.node[19].content_store 	p_hit[19] 	0.099611013652658
scalar level3_network.node[19].content_store 	hits[19] 	1306
scalar level3_network.node[19].content_store 	misses[19] 	11805
scalar level3_network.node[19].content_store 	decision_yes[19] 	610
scalar level3_network.node[19].content_store 	decision_no[19] 	11195
scalar level3_network.node[19].content_store 	decision_ratio[19] 	0.051673019906819
scalar level3_network.node[20].core_layer 	interests[20] 	0
scalar level3_network.node[20].core_layer 	data[20] 	0
scalar level3_network.node[20].content_store 	p_hit[20] 	-nan
scalar level3_network.node[20].content_store 	hits[20] 	0
scalar level3_network.node[20].content_store 	misses[20] 	0
scalar level3_network.node[20].content_store 	decision_yes[20] 	0
scalar level3_network.node[20].content_store 	decision_no[20] 	0
scalar level3_network.node[20].content_store 	decision_ratio[20] 	0
scalar level3_network.node[21].core_layer 	interests[21] 	13251
scalar level3_network.node[21].core_layer 	data[21] 	9338
scalar level3_network.node[21].content_store 	p_hit[21] 	0.29507207003245
scalar level3_network.node[21].content_store 	hits[21] 	3910
scalar level3_network.node[21].content_store 	misses[21] 	9341
scalar level3_network.node[21].content_store 	decision_yes[21] 	456
scalar level3_network.node[21].content_store 	decision_no[21] 	8882
scalar level3_network.node[21].content_store 	decision_ratio[21] 	0.048832726493896
scalar level3_network.node[22].core_layer 	interests[22] 	14128
scalar level3_network.node[22].core_layer 	data[22] 	9292
scalar level3_network.node[22].content_store 	p_hit[22] 	0.34229898074745
scalar level3_network.node[22].content_store 	hits[22] 	4836
scalar level3_network.node[22].content_store 	misses[22] 	9292
scalar level3_network.node[22].content_store 	decision_yes[22] 	481
scalar level3_network.node[22].content_store 	decision_no[22] 	8811
scalar level3_network.node[22].content_store 	decision_ratio[22] 	0.051764959104606
scalar level3_network.node[23].core_layer 	interests[23] 	25593
scalar level3_network.node[23].core_layer 	repo_load[23] 	12500
scalar level3_network.node[23].core_layer 	data[23] 	9258
scalar level3_network.node[23].content_store 	p_hit[23] 	0.14980658773883
scalar level3_network.node[23].content_store 	hits[23] 	3834
scalar level3_network.node[23].content_store 	misses[23] 	21759
scalar level3_network.node[23].content_store 	decision_yes[23] 	1056
scalar level3_network.node[23].content_store 	decision_no[23] 	20702
scalar level3_network.node[23].content_store 	decision_ratio[23] 	0.048533872598584
scalar level3_network.node[24].core_layer 	interests[24] 	0
scalar level3_network.node[24].core_layer 	data[24] 	0
scalar level3_network.node[24].content_store 	p_hit[24] 	-nan
scalar level3_network.node[24].content_store 	hits[24] 	0
scalar level3_network.node[24].content_store 	misses[24] 	0
scalar level3_network.node[24].content_store 	decision_yes[24] 	0
scalar level3_network.node[24].content_store 	decision_no[24] 	0
scalar level3_network.node[24].content_store 	decision_ratio[24] 	0
scalar level3_network.node[25].core_layer 	interests[25] 	25598
scalar level3_network.node[25].core_layer 	repo_load[25] 	12619
scalar level3_network.node[25].core_layer 	data[25] 	9302
scalar level3_network.node[25].content_store 	p_hit[25] 	0.14360496913821
scalar level3_network.node[25].content_store 	hits[25] 	3676
scalar level3_network.node[25].content_store 	misses[25] 	21922
scalar level3_network.node[25].content_store 	decision_yes[25] 	1058
scalar level3_network.node[25].content_store 	decision_no[25] 	20863
scalar level3_network.node[25].content_store 	decision_ratio[25] 	0.048264221522741
scalar level3_network.node[26].core_layer 	interests[26] 	13613
scalar level3_network.node[26].core_layer 	repo_load[26] 	11953
scalar level3_network.node[26].core_layer 	data[26] 	0
scalar level3_network.node[26].content_store 	p_hit[26] 	0.12194226107397
scalar level3_network.node[26].content_store 	hits[26] 	1660
scalar level3_network.node[26].content_store 	misses[26] 	11953
scalar level3_network.node[26].content_store 	decision_yes[26] 	577
scalar level3_network.node[26].content_store 	decision_no[26] 	11376
scalar level3_network.node[26].content_store 	decision_ratio[26] 	0.048272400234251
scalar level3_network.node[27].core_layer 	interests[27] 	14391
scalar level3_network.node[27].core_layer 	data[27] 	9538
scalar level3_network.node[27].content_store 	p_hit[27] 	0.33715516642346
scalar level3_network.node[27].content_store 	hits[27] 	4852
scalar level3_network.node[27].content_store 	misses[27] 	9539
scalar level3_network.node[27].content_store 	decision_yes[27] 	458
scalar level3_network.node[27].content_store 	decision_no[27] 	9080
scalar level3_network.node[27].content_store 	decision_ratio[27] 	0.048018452505766
scalar level3_network.node[28].core_layer 	interests[28] 	26083
scalar level3_network.node[28].core_layer 	repo_load[28] 	13044
scalar level3_network.node[28].core_layer 	data[28] 	9124
scalar level3_network.node[28].content_store 	p_hit[28] 	0.14998274738335
scalar level3_network.node[28].content_store 	hits[28] 	3912
scalar level3_network.node[28].content_store 	misses[28] 	22171
scalar level3_network.node[28].content_store 	decision_yes[28] 	1117
scalar level3_network.node[28].content_store 	decision_no[28] 	21051
scalar level3_network.node[28].content_store 	decision_ratio[28] 	0.050387946589679
scalar level3_network.node[29].core_layer 	interests[29] 	0
scalar level3_network.node[29].core_layer 	data[29] 	0
scalar level3_network.node[29].content_store 	p_hit[29] 	-nan
scalar level3_network.node[29].content_store 	hits[29] 	0
scalar level3_network.node[29].content_store 	misses[29] 	0
scalar level3_network.node[29].content_store 	decision_yes[29] 	0
scalar level3_network.node[29].content_store 	decision_no[29] 	0
scalar level3_network.node[29].content_store 	decision_ratio[29] 	0
scalar level3_network.node[30].core_layer 	interests[30] 	14269
scalar level3_network.node[30].core_layer 	data[30] 	9319
scalar level3_network.node[30].content_store 	p_hit[30] 	0.34690587987946
scalar level3_network.node[30].content_store 	hits[30] 	4950
scalar level3_network.node[30].content_store 	misses[30] 	9319
scalar level3_network.node[30].content_store 	decision_yes[30] 	480
scalar level3_network.node[30].content_store 	decision_no[30] 	8839
scalar level3_network.node[30].content_store 	decision_ratio[30] 	0.051507672497049
scalar level3_network.node[31].core_layer 	interests[31] 	14046
scalar level3_network.node[31].core_layer 	data[31] 	9389
scalar level3_network.node[31].content_store 	p_hit[31] 	0.33119749394846
scalar level3_network.node[31].content_store 	hits[31] 	4652
scalar level3_network.node[31].content_store 	misses[31] 	9394
scalar level3_network.node[31].content_store 	decision_yes[31] 	444
scalar level3_network.node[31].content_store 	decision_no[31] 	8945
scalar level3_network.node[31].content_store 	decision_ratio[31] 	0.047289381190755
scalar level3_network.node[32].core_layer 	interests[32] 	14080
scalar level3_network.node[32].core_layer 	data[32] 	9303
scalar level3_network.node[32].content_store 	p_hit[32] 	0.33934659090909
scalar level3_network.node[32].content_store 	hits[32] 	4778
scalar level3_network.node[32].content_store 	misses[32] 	9302
scalar level3_network.node[32].content_store 	decision_yes[32] 	399
scalar level3_network.node[32].content_store 	decision_no[32] 	8904
scalar level3_network.node[32].content_store 	decision_ratio[32] 	0.042889390519187
scalar level3_network.node[33].core_layer 	interests[33] 	13884
scalar level3_network.node[33].core_layer 	data[33] 	9436
scalar level3_network.node[33].content_store 	p_hit[33] 	0.3201526937482
scalar level3_network.node[33].content_store 	hits[33] 	4445
scalar level3_network.node[33].content_store 	misses[33] 	9439
scalar level3_network.node[33].content_store 	decision_yes[33] 	454
scalar level3_network.node[33].content_store 	decision_no[33] 	8982
scalar level3_network.node[33].content_store 	decision_ratio[33] 	0.048113607460788
scalar level3_network.node[34].core_layer 	interests[34] 	14190
scalar level3_network.node[34].core_layer 	data[34] 	9341
scalar level3_network.node[34].content_store 	p_hit[34] 	0.34171952078929
scalar level3_network.node[34].content_store 	hits[34] 	4849
scalar level3_network.node[34].content_store 	misses[34] 	9341
scalar level3_network.node[34].content_store 	decision_yes[34] 	417
scalar level3_network.node[34].content_store 	decision_no[34] 	8924
scalar level3_network.node[34].content_store 	decision_ratio[34] 	0.044641901295365
scalar level3_network.node[35].core_layer 	interests[35] 	0
scalar level3_network.node[35].core_layer 	data[35] 	0
scalar level3_network.node[35].content_store 	p_hit[35] 	-nan
scalar level3_network.node[35].content_store 	hits[35] 	0
scalar level3_network.node[35].content_store 	misses[35] 	0
scalar level3_network.node[35].content_store 	decision_yes[35] 	0
scalar level3_network.node[35].content_store 	decision_no[35] 	0
scalar level3_network.node[35].content_store 	decision_ratio[35] 	0
scalar level3_network.node[36].core_layer 	interests[36] 	14087
scalar level3_network.node[36].core_layer 	data[36] 	9441
scalar level3_network.node[36].content_store 	p_hit[36] 	0.32980762405054
scalar level3_network.node[36].content_store 	hits[36] 	4646
scalar level3_network.node[36].content_store 	misses[36] 	9441
scalar level3_network.node[36].content_store 	decision_yes[36] 	459
scalar level3_network.node[36].content_store 	decision_no[36] 	8982
scalar level3_network.node[36].content_store 	decision_ratio[36] 	0.048617731172545
scalar level3_network.node[37].core_layer 	interests[37] 	14172
scalar level3_network.node[37].core_layer 	data[37] 	9653
scalar level3_network.node[37].content_store 	p_hit[37] 	0.31886819079876
scalar level3_network.node[37].content_store 	hits[37] 	4519
scalar level3_network.node[37].content_store 	misses[37] 	9653
scalar level3_network.node[37].content_store 	decision_yes[37] 	521
scalar level3_network.node[37].content_store 	decision_no[37] 	9132
scalar level3_network.node[37].content_store 	decision_ratio[37] 	0.053972858178805
scalar level3_network.node[38].core_layer 	interests[38] 	25758
scalar level3_network.node[38].core_layer 	repo_load[38] 	12761
scalar level3_network.node[38].core_layer 	data[38] 	9202
scalar level3_network.node[38].content_store 	p_hit[38] 	0.14729404456868
scalar level3_network.node[38].content_store 	hits[38] 	3794
scalar level3_network.node[38].content_store 	misses[38] 	21964
scalar level3_network.node[38].content_store 	decision_yes[38] 	1090
scalar level3_network.node[38].content_store 	decision_no[38] 	20873
scalar level3_network.node[38].content_store 	decision_ratio[38] 	0.049628921367755
scalar level3_network.node[39].core_layer 	interests[39] 	25995
scalar level3_network.node[39].core_layer 	repo_load[39] 	12889
scalar level3_network.node[39].core_layer 	data[39] 	9188
scalar level3_network.node[39].content_store 	p_hit[39] 	0.15064435468359
scalar level3_network.node[39].content_store 	hits[39] 	3916
scalar level3_network.node[39].content_store 	misses[39] 	22079
scalar level3_network.node[39].content_store 	decision_yes[39] 	1109
scalar level3_network.node[39].content_store 	decision_no[39] 	20968
scalar level3_network.node[39].content_store 	decision_ratio[39] 	0.050233274448521
scalar level3_network.node[40].core_layer 	interests[40] 	13136
scalar level3_network.node[40].core_layer 	data[40] 	9269
scalar level3_network.node[40].content_store 	p_hit[40] 	0.29415347137637
scalar level3_network.node[40].content_store 	hits[40] 	3864
scalar level3_network.node[40].content_store 	misses[40] 	9272
scalar level3_network.node[40].content_store 	decision_yes[40] 	485
scalar level3_network.node[40].content_store 	decision_no[40] 	8784
scalar level3_network.node[40].content_store 	decision_ratio[40] 	0.052324954148236
scalar level3_network.node[41].core_layer 	interests[41] 	0
scalar level3_network.node[41].core_layer 	data[41] 	0
scalar level3_network.node[41].content_store 	p_hit[41] 	-nan
scalar level3_network.node[41].content_store 	hits[41] 	0
scalar level3_network.node[41].content_store 	misses[41] 	0
scalar level3_network.node[41].content_store 	decision_yes[41] 	0
scalar level3_network.node[41].content_store 	decision_no[41] 	0
scalar level3_network.node[41].content_store 	decision_ratio[41] 	0
scalar level3_network.node[42].core_layer 	interests[42] 	25542
scalar level3_network.node[42].core_layer 	repo_load[42] 	12449
scalar level3_network.node[42].core_layer 	data[42] 	9074
scalar level3_network.node[42].content_store 	p_hit[42] 	0.15730952940255
scalar level3_network.node[42].content_store 	hits[42] 	4018
scalar level3_network.node[42].content_store 	misses[42] 	21524
scalar level3_network.node[42].content_store 	decision_yes[42] 	1061
scalar level3_network.node[42].content_store 	decision_no[42] 	20462
scalar level3_network.node[42].content_store 	decision_ratio[42] 	0.049296101844538
scalar level3_network.node[43].core_layer 	interests[43] 	13207
scalar level3_network.node[43].core_layer 	data[43] 	9323
scalar level3_network.node[43].content_store 	p_hit[43] 	0.29401075187401
scalar level3_network.node[43].content_store 	hits[43] 	3883
scalar level3_network.node[43].content_store 	misses[43] 	9324
scalar level3_network.node[43].content_store 	decision_yes[43] 	464
scalar level3_network.node[43].content_store 	decision_no[43] 	8859
scalar level3_network.node[43].content_store 	decision_ratio[43] 	0.049769387536201
scalar level3_network.node[44].core_layer 	interests[44] 	13578
scalar level3_network.node[44].core_layer 	repo_load[44] 	12103
scalar level3_network.node[44].core_layer 	data[44] 	0
scalar level3_network.node[44].content_store 	p_hit[44] 	0.10863160995728
scalar level3_network.node[44].content_store 	hits[44] 	1475
scalar level3_network.node[44].content_store 	misses[44] 	12103
scalar level3_network.node[44].content_store 	decision_yes[44] 	602
scalar level3_network.node[44].content_store 	decision_no[44] 	11501
scalar level3_network.node[44].content_store 	decision_ratio[44] 	0.04973973395026
scalar level3_network.node[45].core_layer 	interests[45] 	14029
scalar level3_network.node[45].core_layer 	data[45] 	9637
scalar level3_network.node[45].content_store 	p_hit[45] 	0.31263810677882
scalar level3_network.node[45].content_store 	hits[45] 	4386
scalar level3_network.node[45].content_store 	misses[45] 	9643
scalar level3_network.node[45].content_store 	decision_yes[45] 	469
scalar level3_network.node[45].content_store 	decision_no[45] 	9168
scalar level3_network.node[45].content_store 	decision_ratio[45] 	0.048666597488845
scalar level3_network.client[2] 	hdistance[2] 	1.8020790363831
scalar level3_network.client[2] 	downloads[2] 	12121
scalar level3_network.client[2] 	avg_time[2] 	0.041688713705
scalar level3_network.client[3] 	hdistance[3] 	1.7152117181581
scalar level3_network.client[3] 	downloads[3] 	11879
scalar level3_network.client[3] 	avg_time[3] 	0.041510009491
scalar level3_network.client[4] 	hdistance[4] 	1.8657415147969
scalar level3_network.client[4] 	downloads[4] 	11962
scalar level3_network.client[4] 	avg_time[4] 	0.041729665753
scalar level3_network.client[6] 	hdistance[6] 	1.9060075920119
scalar level3_network.client[6] 	downloads[6] 	12118
scalar level3_network.client[6] 	avg_time[6] 	0.026590641802
scalar level3_network.client[7] 	hdistance[7] 	1.5477574750831
scalar level3_network.client[7] 	downloads[7] 	12040
scalar level3_network.client[7] 	avg_time[7] 	0.022576410279
scalar level3_network.client[8] 	hdistance[8] 	1.5236514522822
scalar level3_network.client[8] 	downloads[8] 	12050
scalar level3_network.client[8] 	avg_time[8] 	0.024737119776
scalar level3_network.client[9] 	hdistance[9] 	1.6645002056767
scalar level3_network.client[9] 	downloads[9] 	12155
scalar level3_network.client[9] 	avg_time[9] 	0.027287635137
scalar level3_network.client[11] 	hdistance[11] 	1.4054371538849
scalar level3_network.client[11] 	downloads[11] 	11918
scalar level3_network.client[11] 	avg_time[11] 	0.022586028428
scalar level3_network.client[12] 	hdistance[12] 	1.8920645595158
scalar level3_network.client[12] 	downloads[12] 	11896
scalar level3_network.client[12] 	avg_time[12] 	0.036498364654
scalar level3_network.client[14] 	hdistance[14] 	1.8314430002484
scalar level3_network.client[14] 	downloads[14] 	12079
scalar level3_network.client[14] 	avg_time[14] 	0.023908233263
scalar level3_network.client[15] 	hdistance[15] 	1.8672610203071
scalar level3_network.client[15] 	downloads[15] 	12114
scalar level3_network.client[15] 	avg_time[15] 	0.039196128184
scalar level3_network.client[17] 	hdistance[17] 	1.4378519203294
scalar level3_network.client[17] 	downloads[17] 	11899
scalar level3_network.client[17] 	avg_time[17] 	0.03353485988
scalar level3_network.client[18] 	hdistance[18] 	1.3746714848883
scalar level3_network.client[18] 	downloads[18] 	12176
scalar level3_network.client[18] 	avg_time[18] 	0.021074284648
scalar level3_network.client[21] 	hdistance[21] 	2.3751972755212
scalar level3_network.client[21] 	downloads[21] 	12039
scalar level3_network.client[21] 	avg_time[21] 	0.041563202587
scalar level3_network.client[22] 	hdistance[22] 	1.8759074793179
scalar level3_network.client[22] 	downloads[22] 	11846
scalar level3_network.client[22] 	avg_time[22] 	0.026638295648
scalar level3_network.client[23] 	hdistance[23] 	1.8597417840376
scalar level3_network.client[23] 	downloads[23] 	11928
scalar level3_network.client[23] 	avg_time[23] 	0.022946381689
scalar level3_network.client[25] 	hdistance[25] 	1.8549257199768
scalar level3_network.client[25] 	downloads[25] 	12049
scalar level3_network.client[25] 	avg_time[25] 	0.022336185385
scalar level3_network.client[27] 	hdistance[27] 	1.8971716005607
scalar level3_network.client[27] 	downloads[27] 	12127
scalar level3_network.client[27] 	avg_time[27] 	0.037218611702
scalar level3_network.client[28] 	hdistance[28] 	1.8613576802773
scalar level3_network.client[28] 	downloads[28] 	11829
scalar level3_network.client[28] 	avg_time[28] 	0.031396319368
scalar level3_network.client[30] 	hdistance[30] 	1.8361148197597
scalar level3_network.client[30] 	downloads[30] 	11984
scalar level3_network.client[30] 	avg_time[30] 	0.02384013892
scalar level3_network.client[31] 	hdistance[31] 	1.879317519767
scalar level3_network.client[31] 	downloads[31] 	12015
scalar level3_network.client[31] 	avg_time[31] 	0.040675215026
scalar level3_network.client[32] 	hdistance[32] 	1.8755245929159
scalar level3_network.client[32] 	downloads[32] 	11914
scalar level3_network.client[32] 	avg_time[32] 	0.033782054472
scalar level3_network.client[33] 	hdistance[33] 	1.8590643274854
scalar level3_network.client[33] 	downloads[33] 	11970
scalar level3_network.client[33] 	avg_time[33] 	0.030551434058
scalar level3_network.client[34] 	hdistance[34] 	1.8772372069574
scalar level3_network.client[34] 	downloads[34] 	11901
scalar level3_network.client[34] 	avg_time[34] 	0.040859674719
scalar level3_network.client[36] 	hdistance[36] 	1.9018934316354
scalar level3_network.client[36] 	downloads[36] 	11936
scalar level3_network.client[36] 	avg_time[36] 	0.025327690687
scalar level3_network.client[37] 	hdistance[37] 	1.904612591798
scalar level3_network.client[37] 	downloads[37] 	12119
scalar level3_network.client[37] 	avg_time[37] 	0.030171921894
scalar level3_network.client[38] 	hdistance[38] 	1.8469181542607
scalar level3_network.client[38] 	downloads[38] 	11876
scalar level3_network.client[38] 	avg_time[38] 	0.037645217738
scalar level3_network.client[39] 	hdistance[39] 	1.8650766897017
scalar level3_network.client[39] 	downloads[39] 	11866
scalar level3_network.client[39] 	avg_time[39] 	0.023703369039
scalar level3_network.client[40] 	hdistance[40] 	2.1901096142582
scalar level3_network.client[40] 	downloads[40] 	11951
scalar level3_network.client[40] 	avg_time[40] 	0.030845779863
scalar level3_network.client[42] 	hdistance[42] 	1.8829563608846
scalar level3_network.client[42] 	downloads[42] 	11893
scalar level3_network.client[42] 	avg_time[42] 	0.042764527039
scalar level3_network.client[43] 	hdistance[43] 	2.3922716627635
scalar level3_network.client[43] 	downloads[43] 	11956
scalar level3_network.client[43] 	avg_time[43] 	0.044746279921
scalar level3_network.client[45] 	hdistance[45] 	2.0134889109567
scalar level3_network.client[45] 	downloads[45] 	12084
scalar level3_network.client[45] 	avg_time[45] 	0.049226514634
