version 2
run General-73-20160825-22:53:03-3010
attr D fix0.05
attr F nrr
attr R lru
attr a 0.9
attr configname General
attr datetime 20160825-22:53:03
attr experiment General
attr inifile hw5115/scenario_C/omnetp.ini
attr iterationvars "$net=level3, $rep=9, $a=0.9, $F=nrr, $D=fix0.05, $R=lru, $window=60, $variance=0.05, $mytime=600"
attr iterationvars2 "$net=level3, $rep=9, $a=0.9, $F=nrr, $D=fix0.05, $R=lru, $window=60, $variance=0.05, $mytime=600, $repetition=0"
attr measurement "$net=level3, $rep=9, $a=0.9, $F=nrr, $D=fix0.05, $R=lru, $window=60, $variance=0.05, $mytime=600"
attr mytime 600
attr net level3
attr network networks.${net=level3}_network
attr processid 3010
attr rep 9
attr repetition 0
attr replication #0
attr resultdir results
attr runnumber 73
attr seedset 9
attr variance 0.05
attr window 60

scalar . 	a 	0.9
scalar . 	mytime 	600
scalar . 	rep 	9
scalar . 	variance 	0.05
scalar . 	window 	60
scalar level3_network.content_distribution 	repo-0 	1
scalar level3_network.content_distribution 	repo-1 	5
scalar level3_network.content_distribution 	repo-2 	22
scalar level3_network.content_distribution 	repo-3 	32
scalar level3_network.content_distribution 	repo-4 	3
scalar level3_network.content_distribution 	repo-5 	23
scalar level3_network.content_distribution 	repo-6 	12
scalar level3_network.content_distribution 	repo-7 	0
scalar level3_network.content_distribution 	repo-8 	44
scalar level3_network.content_distribution 	repo-9 	8
scalar level3_network.content_distribution 	repo-10 	24
scalar level3_network.content_distribution 	repo-11 	30
scalar level3_network.content_distribution 	repo-12 	43
scalar level3_network.content_distribution 	repo-13 	28
scalar level3_network.content_distribution 	repo-14 	7
scalar level3_network.content_distribution 	repo-15 	14
scalar level3_network.content_distribution 	client-0 	21
scalar level3_network.content_distribution 	client-1 	9
scalar level3_network.content_distribution 	client-2 	38
scalar level3_network.content_distribution 	client-3 	2
scalar level3_network.content_distribution 	client-4 	30
scalar level3_network.content_distribution 	client-5 	8
scalar level3_network.content_distribution 	client-6 	23
scalar level3_network.content_distribution 	client-7 	32
scalar level3_network.content_distribution 	client-8 	40
scalar level3_network.content_distribution 	client-9 	42
scalar level3_network.content_distribution 	client-10 	45
scalar level3_network.content_distribution 	client-11 	33
scalar level3_network.content_distribution 	client-12 	28
scalar level3_network.content_distribution 	client-13 	3
scalar level3_network.content_distribution 	client-14 	15
scalar level3_network.content_distribution 	client-15 	34
scalar level3_network.content_distribution 	client-16 	31
scalar level3_network.content_distribution 	client-17 	17
scalar level3_network.content_distribution 	client-18 	25
scalar level3_network.content_distribution 	client-19 	12
scalar level3_network.content_distribution 	client-20 	22
scalar level3_network.content_distribution 	client-21 	11
scalar level3_network.content_distribution 	client-22 	6
scalar level3_network.content_distribution 	client-23 	39
scalar level3_network.content_distribution 	client-24 	7
scalar level3_network.content_distribution 	client-25 	18
scalar level3_network.content_distribution 	client-26 	36
scalar level3_network.content_distribution 	client-27 	27
scalar level3_network.content_distribution 	client-28 	43
scalar level3_network.content_distribution 	client-29 	37
scalar level3_network.content_distribution 	client-30 	4
scalar level3_network.content_distribution 	client-31 	14
scalar level3_network.content_distribution 	repo-0_card 	6357
scalar level3_network.content_distribution 	repo-0_price 	0
scalar level3_network.content_distribution 	repo-1_card 	6265
scalar level3_network.content_distribution 	repo-1_price 	0
scalar level3_network.content_distribution 	repo-2_card 	6376
scalar level3_network.content_distribution 	repo-2_price 	0
scalar level3_network.content_distribution 	repo-3_card 	6158
scalar level3_network.content_distribution 	repo-3_price 	0
scalar level3_network.content_distribution 	repo-4_card 	6159
scalar level3_network.content_distribution 	repo-4_price 	0
scalar level3_network.content_distribution 	repo-5_card 	6389
scalar level3_network.content_distribution 	repo-5_price 	0
scalar level3_network.content_distribution 	repo-6_card 	6324
scalar level3_network.content_distribution 	repo-6_price 	0
scalar level3_network.content_distribution 	repo-7_card 	6320
scalar level3_network.content_distribution 	repo-7_price 	0
scalar level3_network.content_distribution 	repo-8_card 	6093
scalar level3_network.content_distribution 	repo-8_price 	0
scalar level3_network.content_distribution 	repo-9_card 	6151
scalar level3_network.content_distribution 	repo-9_price 	0
scalar level3_network.content_distribution 	repo-10_card 	6306
scalar level3_network.content_distribution 	repo-10_price 	0
scalar level3_network.content_distribution 	repo-11_card 	6181
scalar level3_network.content_distribution 	repo-11_price 	0
scalar level3_network.content_distribution 	repo-12_card 	6225
scalar level3_network.content_distribution 	repo-12_price 	0
scalar level3_network.content_distribution 	repo-13_card 	6286
scalar level3_network.content_distribution 	repo-13_price 	0
scalar level3_network.content_distribution 	repo-14_card 	6172
scalar level3_network.content_distribution 	repo-14_price 	0
scalar level3_network.content_distribution 	repo-15_card 	6238
scalar level3_network.content_distribution 	repo-15_price 	0
scalar level3_network.statistics 	stabilization_time 	1580.5
scalar level3_network.statistics 	p_hit 	0.24410586974926
scalar level3_network.statistics 	interests 	19930.630434783
scalar level3_network.statistics 	data 	11578.413043478
scalar level3_network.statistics 	hdistance 	1.9187049813353
scalar level3_network.statistics 	avg_time 	0.033413442648
scalar level3_network.statistics 	downloads 	384159
scalar level3_network.statistics 	total_cost 	0
scalar level3_network.statistics 	total_replicas 	100000
scalar level3_network.statistics 	inner_hit 	0.46849872058184
scalar level3_network.node[0].core_layer 	interests[0] 	13865
scalar level3_network.node[0].core_layer 	repo_load[0] 	12345
scalar level3_network.node[0].core_layer 	data[0] 	414
scalar level3_network.node[0].core_layer 	repo_int[0] 	204181
scalar level3_network.node[0].content_store 	p_hit[0] 	0.07976920302921
scalar level3_network.node[0].content_store 	hits[0] 	1106
scalar level3_network.node[0].content_store 	misses[0] 	12759
scalar level3_network.node[0].content_store 	decision_yes[0] 	651
scalar level3_network.node[0].content_store 	decision_no[0] 	12108
scalar level3_network.node[0].content_store 	decision_ratio[0] 	0.051022807430049
scalar level3_network.node[1].core_layer 	interests[1] 	13282
scalar level3_network.node[1].core_layer 	repo_load[1] 	12196
scalar level3_network.node[1].core_layer 	data[1] 	0
scalar level3_network.node[1].content_store 	p_hit[1] 	0.081764794458666
scalar level3_network.node[1].content_store 	hits[1] 	1086
scalar level3_network.node[1].content_store 	misses[1] 	12196
scalar level3_network.node[1].content_store 	decision_yes[1] 	652
scalar level3_network.node[1].content_store 	decision_no[1] 	11544
scalar level3_network.node[1].content_store 	decision_ratio[1] 	0.053460150869137
scalar level3_network.node[2].core_layer 	interests[2] 	50716
scalar level3_network.node[2].core_layer 	data[2] 	46958
scalar level3_network.node[2].content_store 	p_hit[2] 	0.07388200962221
scalar level3_network.node[2].content_store 	hits[2] 	3747
scalar level3_network.node[2].content_store 	misses[2] 	46969
scalar level3_network.node[2].content_store 	decision_yes[2] 	2320
scalar level3_network.node[2].content_store 	decision_no[2] 	44638
scalar level3_network.node[2].content_store 	decision_ratio[2] 	0.049405852037991
scalar level3_network.node[3].core_layer 	interests[3] 	47575
scalar level3_network.node[3].core_layer 	repo_load[3] 	13578
scalar level3_network.node[3].core_layer 	data[3] 	29234
scalar level3_network.node[3].content_store 	p_hit[3] 	0.10001050972149
scalar level3_network.node[3].content_store 	hits[3] 	4758
scalar level3_network.node[3].content_store 	misses[3] 	42817
scalar level3_network.node[3].content_store 	decision_yes[3] 	2248
scalar level3_network.node[3].content_store 	decision_no[3] 	40564
scalar level3_network.node[3].content_store 	decision_ratio[3] 	0.0525086424367
scalar level3_network.node[4].core_layer 	interests[4] 	14510
scalar level3_network.node[4].core_layer 	data[4] 	9640
scalar level3_network.node[4].content_store 	p_hit[4] 	0.33535492763611
scalar level3_network.node[4].content_store 	hits[4] 	4866
scalar level3_network.node[4].content_store 	misses[4] 	9644
scalar level3_network.node[4].content_store 	decision_yes[4] 	469
scalar level3_network.node[4].content_store 	decision_no[4] 	9171
scalar level3_network.node[4].content_store 	decision_ratio[4] 	0.048651452282158
scalar level3_network.node[5].core_layer 	interests[5] 	17914
scalar level3_network.node[5].core_layer 	repo_load[5] 	12159
scalar level3_network.node[5].core_layer 	data[5] 	3576
scalar level3_network.node[5].content_store 	p_hit[5] 	0.12163670871944
scalar level3_network.node[5].content_store 	hits[5] 	2179
scalar level3_network.node[5].content_store 	misses[5] 	15735
scalar level3_network.node[5].content_store 	decision_yes[5] 	766
scalar level3_network.node[5].content_store 	decision_no[5] 	14969
scalar level3_network.node[5].content_store 	decision_ratio[5] 	0.048681283762313
scalar level3_network.node[6].core_layer 	interests[6] 	14037
scalar level3_network.node[6].core_layer 	data[6] 	9639
scalar level3_network.node[6].content_store 	p_hit[6] 	0.31331481085702
scalar level3_network.node[6].content_store 	hits[6] 	4398
scalar level3_network.node[6].content_store 	misses[6] 	9639
scalar level3_network.node[6].content_store 	decision_yes[6] 	491
scalar level3_network.node[6].content_store 	decision_no[6] 	9148
scalar level3_network.node[6].content_store 	decision_ratio[6] 	0.050938894076149
scalar level3_network.node[7].core_layer 	interests[7] 	122735
scalar level3_network.node[7].core_layer 	repo_load[7] 	14335
scalar level3_network.node[7].core_layer 	data[7] 	104376
scalar level3_network.node[7].content_store 	p_hit[7] 	0.032435735527763
scalar level3_network.node[7].content_store 	hits[7] 	3981
scalar level3_network.node[7].content_store 	misses[7] 	118754
scalar level3_network.node[7].content_store 	decision_yes[7] 	5881
scalar level3_network.node[7].content_store 	decision_no[7] 	112828
scalar level3_network.node[7].content_store 	decision_ratio[7] 	0.049541315317288
scalar level3_network.node[8].core_layer 	interests[8] 	45004
scalar level3_network.node[8].core_layer 	repo_load[8] 	13607
scalar level3_network.node[8].core_layer 	data[8] 	22059
scalar level3_network.node[8].content_store 	p_hit[8] 	0.20738156608301
scalar level3_network.node[8].content_store 	hits[8] 	9333
scalar level3_network.node[8].content_store 	misses[8] 	35671
scalar level3_network.node[8].content_store 	decision_yes[8] 	1758
scalar level3_network.node[8].content_store 	decision_no[8] 	33908
scalar level3_network.node[8].content_store 	decision_ratio[8] 	0.04929064094656
scalar level3_network.node[9].core_layer 	interests[9] 	17280
scalar level3_network.node[9].core_layer 	data[9] 	9288
scalar level3_network.node[9].content_store 	p_hit[9] 	0.46232638888889
scalar level3_network.node[9].content_store 	hits[9] 	7989
scalar level3_network.node[9].content_store 	misses[9] 	9291
scalar level3_network.node[9].content_store 	decision_yes[9] 	459
scalar level3_network.node[9].content_store 	decision_no[9] 	8829
scalar level3_network.node[9].content_store 	decision_ratio[9] 	0.049418604651163
scalar level3_network.node[10].core_layer 	interests[10] 	0
scalar level3_network.node[10].core_layer 	data[10] 	0
scalar level3_network.node[10].content_store 	p_hit[10] 	-nan
scalar level3_network.node[10].content_store 	hits[10] 	0
scalar level3_network.node[10].content_store 	misses[10] 	0
scalar level3_network.node[10].content_store 	decision_yes[10] 	0
scalar level3_network.node[10].content_store 	decision_no[10] 	0
scalar level3_network.node[10].content_store 	decision_ratio[10] 	0
scalar level3_network.node[11].core_layer 	interests[11] 	72318
scalar level3_network.node[11].core_layer 	data[11] 	64907
scalar level3_network.node[11].content_store 	p_hit[11] 	0.10182803727979
scalar level3_network.node[11].content_store 	hits[11] 	7364
scalar level3_network.node[11].content_store 	misses[11] 	64954
scalar level3_network.node[11].content_store 	decision_yes[11] 	3198
scalar level3_network.node[11].content_store 	decision_no[11] 	61708
scalar level3_network.node[11].content_store 	decision_ratio[11] 	0.049271253813207
scalar level3_network.node[12].core_layer 	interests[12] 	25807
scalar level3_network.node[12].core_layer 	repo_load[12] 	12802
scalar level3_network.node[12].core_layer 	data[12] 	9218
scalar level3_network.node[12].content_store 	p_hit[12] 	0.14674313170845
scalar level3_network.node[12].content_store 	hits[12] 	3787
scalar level3_network.node[12].content_store 	misses[12] 	22020
scalar level3_network.node[12].content_store 	decision_yes[12] 	1149
scalar level3_network.node[12].content_store 	decision_no[12] 	20871
scalar level3_network.node[12].content_store 	decision_ratio[12] 	0.052179836512262
scalar level3_network.node[13].core_layer 	interests[13] 	0
scalar level3_network.node[13].core_layer 	data[13] 	0
scalar level3_network.node[13].content_store 	p_hit[13] 	-nan
scalar level3_network.node[13].content_store 	hits[13] 	0
scalar level3_network.node[13].content_store 	misses[13] 	0
scalar level3_network.node[13].content_store 	decision_yes[13] 	0
scalar level3_network.node[13].content_store 	decision_no[13] 	0
scalar level3_network.node[13].content_store 	decision_ratio[13] 	0
scalar level3_network.node[14].core_layer 	interests[14] 	26509
scalar level3_network.node[14].core_layer 	repo_load[14] 	12919
scalar level3_network.node[14].core_layer 	data[14] 	9324
scalar level3_network.node[14].content_store 	p_hit[14] 	0.16081330868762
scalar level3_network.node[14].content_store 	hits[14] 	4263
scalar level3_network.node[14].content_store 	misses[14] 	22246
scalar level3_network.node[14].content_store 	decision_yes[14] 	1155
scalar level3_network.node[14].content_store 	decision_no[14] 	21088
scalar level3_network.node[14].content_store 	decision_ratio[14] 	0.0519264487704
scalar level3_network.node[15].core_layer 	interests[15] 	14179
scalar level3_network.node[15].core_layer 	data[15] 	9449
scalar level3_network.node[15].content_store 	p_hit[15] 	0.33338035122364
scalar level3_network.node[15].content_store 	hits[15] 	4727
scalar level3_network.node[15].content_store 	misses[15] 	9452
scalar level3_network.node[15].content_store 	decision_yes[15] 	487
scalar level3_network.node[15].content_store 	decision_no[15] 	8962
scalar level3_network.node[15].content_store 	decision_ratio[15] 	0.051539845486295
scalar level3_network.node[16].core_layer 	interests[16] 	0
scalar level3_network.node[16].core_layer 	data[16] 	0
scalar level3_network.node[16].content_store 	p_hit[16] 	-nan
scalar level3_network.node[16].content_store 	hits[16] 	0
scalar level3_network.node[16].content_store 	misses[16] 	0
scalar level3_network.node[16].content_store 	decision_yes[16] 	0
scalar level3_network.node[16].content_store 	decision_no[16] 	0
scalar level3_network.node[16].content_store 	decision_ratio[16] 	0
scalar level3_network.node[17].core_layer 	interests[17] 	23235
scalar level3_network.node[17].core_layer 	data[17] 	9257
scalar level3_network.node[17].content_store 	p_hit[17] 	0.60159242522057
scalar level3_network.node[17].content_store 	hits[17] 	13978
scalar level3_network.node[17].content_store 	misses[17] 	9257
scalar level3_network.node[17].content_store 	decision_yes[17] 	457
scalar level3_network.node[17].content_store 	decision_no[17] 	8800
scalar level3_network.node[17].content_store 	decision_ratio[17] 	0.049368045803176
scalar level3_network.node[18].core_layer 	interests[18] 	32399
scalar level3_network.node[18].core_layer 	data[18] 	16228
scalar level3_network.node[18].content_store 	p_hit[18] 	0.49890428716936
scalar level3_network.node[18].content_store 	hits[18] 	16164
scalar level3_network.node[18].content_store 	misses[18] 	16235
scalar level3_network.node[18].content_store 	decision_yes[18] 	829
scalar level3_network.node[18].content_store 	decision_no[18] 	15399
scalar level3_network.node[18].content_store 	decision_ratio[18] 	0.051084545230466
scalar level3_network.node[19].core_layer 	interests[19] 	0
scalar level3_network.node[19].core_layer 	data[19] 	0
scalar level3_network.node[19].content_store 	p_hit[19] 	-nan
scalar level3_network.node[19].content_store 	hits[19] 	0
scalar level3_network.node[19].content_store 	misses[19] 	0
scalar level3_network.node[19].content_store 	decision_yes[19] 	0
scalar level3_network.node[19].content_store 	decision_no[19] 	0
scalar level3_network.node[19].content_store 	decision_ratio[19] 	0
scalar level3_network.node[20].core_layer 	interests[20] 	0
scalar level3_network.node[20].core_layer 	data[20] 	0
scalar level3_network.node[20].content_store 	p_hit[20] 	-nan
scalar level3_network.node[20].content_store 	hits[20] 	0
scalar level3_network.node[20].content_store 	misses[20] 	0
scalar level3_network.node[20].content_store 	decision_yes[20] 	0
scalar level3_network.node[20].content_store 	decision_no[20] 	0
scalar level3_network.node[20].content_store 	decision_ratio[20] 	0
scalar level3_network.node[21].core_layer 	interests[21] 	13314
scalar level3_network.node[21].core_layer 	data[21] 	9418
scalar level3_network.node[21].content_store 	p_hit[21] 	0.2926243052426
scalar level3_network.node[21].content_store 	hits[21] 	3896
scalar level3_network.node[21].content_store 	misses[21] 	9418
scalar level3_network.node[21].content_store 	decision_yes[21] 	477
scalar level3_network.node[21].content_store 	decision_no[21] 	8941
scalar level3_network.node[21].content_store 	decision_ratio[21] 	0.050647695901465
scalar level3_network.node[22].core_layer 	interests[22] 	25936
scalar level3_network.node[22].core_layer 	repo_load[22] 	13026
scalar level3_network.node[22].core_layer 	data[22] 	9263
scalar level3_network.node[22].content_store 	p_hit[22] 	0.14046113510179
scalar level3_network.node[22].content_store 	hits[22] 	3643
scalar level3_network.node[22].content_store 	misses[22] 	22293
scalar level3_network.node[22].content_store 	decision_yes[22] 	1170
scalar level3_network.node[22].content_store 	decision_no[22] 	21119
scalar level3_network.node[22].content_store 	decision_ratio[22] 	0.052492260756427
scalar level3_network.node[23].core_layer 	interests[23] 	26312
scalar level3_network.node[23].core_layer 	repo_load[23] 	13356
scalar level3_network.node[23].core_layer 	data[23] 	9245
scalar level3_network.node[23].content_store 	p_hit[23] 	0.14103830951657
scalar level3_network.node[23].content_store 	hits[23] 	3711
scalar level3_network.node[23].content_store 	misses[23] 	22601
scalar level3_network.node[23].content_store 	decision_yes[23] 	1146
scalar level3_network.node[23].content_store 	decision_no[23] 	21455
scalar level3_network.node[23].content_store 	decision_ratio[23] 	0.050705720985797
scalar level3_network.node[24].core_layer 	interests[24] 	13670
scalar level3_network.node[24].core_layer 	repo_load[24] 	12122
scalar level3_network.node[24].core_layer 	data[24] 	0
scalar level3_network.node[24].content_store 	p_hit[24] 	0.11324067300658
scalar level3_network.node[24].content_store 	hits[24] 	1548
scalar level3_network.node[24].content_store 	misses[24] 	12122
scalar level3_network.node[24].content_store 	decision_yes[24] 	596
scalar level3_network.node[24].content_store 	decision_no[24] 	11526
scalar level3_network.node[24].content_store 	decision_ratio[24] 	0.04916680415773
scalar level3_network.node[25].core_layer 	interests[25] 	14286
scalar level3_network.node[25].core_layer 	data[25] 	9587
scalar level3_network.node[25].content_store 	p_hit[25] 	0.3289934201316
scalar level3_network.node[25].content_store 	hits[25] 	4700
scalar level3_network.node[25].content_store 	misses[25] 	9586
scalar level3_network.node[25].content_store 	decision_yes[25] 	492
scalar level3_network.node[25].content_store 	decision_no[25] 	9095
scalar level3_network.node[25].content_store 	decision_ratio[25] 	0.051319495149682
scalar level3_network.node[26].core_layer 	interests[26] 	0
scalar level3_network.node[26].core_layer 	data[26] 	0
scalar level3_network.node[26].content_store 	p_hit[26] 	-nan
scalar level3_network.node[26].content_store 	hits[26] 	0
scalar level3_network.node[26].content_store 	misses[26] 	0
scalar level3_network.node[26].content_store 	decision_yes[26] 	0
scalar level3_network.node[26].content_store 	decision_no[26] 	0
scalar level3_network.node[26].content_store 	decision_ratio[26] 	0
scalar level3_network.node[27].core_layer 	interests[27] 	14417
scalar level3_network.node[27].core_layer 	data[27] 	9577
scalar level3_network.node[27].content_store 	p_hit[27] 	0.33564541860304
scalar level3_network.node[27].content_store 	hits[27] 	4839
scalar level3_network.node[27].content_store 	misses[27] 	9578
scalar level3_network.node[27].content_store 	decision_yes[27] 	474
scalar level3_network.node[27].content_store 	decision_no[27] 	9103
scalar level3_network.node[27].content_store 	decision_ratio[27] 	0.049493578364832
scalar level3_network.node[28].core_layer 	interests[28] 	25821
scalar level3_network.node[28].core_layer 	repo_load[28] 	12695
scalar level3_network.node[28].core_layer 	data[28] 	9324
scalar level3_network.node[28].content_store 	p_hit[28] 	0.14720576275125
scalar level3_network.node[28].content_store 	hits[28] 	3801
scalar level3_network.node[28].content_store 	misses[28] 	22020
scalar level3_network.node[28].content_store 	decision_yes[28] 	1035
scalar level3_network.node[28].content_store 	decision_no[28] 	20984
scalar level3_network.node[28].content_store 	decision_ratio[28] 	0.047004859439575
scalar level3_network.node[29].core_layer 	interests[29] 	0
scalar level3_network.node[29].core_layer 	data[29] 	0
scalar level3_network.node[29].content_store 	p_hit[29] 	-nan
scalar level3_network.node[29].content_store 	hits[29] 	0
scalar level3_network.node[29].content_store 	misses[29] 	0
scalar level3_network.node[29].content_store 	decision_yes[29] 	0
scalar level3_network.node[29].content_store 	decision_no[29] 	0
scalar level3_network.node[29].content_store 	decision_ratio[29] 	0
scalar level3_network.node[30].core_layer 	interests[30] 	25754
scalar level3_network.node[30].core_layer 	repo_load[30] 	12433
scalar level3_network.node[30].core_layer 	data[30] 	9294
scalar level3_network.node[30].content_store 	p_hit[30] 	0.15628640211229
scalar level3_network.node[30].content_store 	hits[30] 	4025
scalar level3_network.node[30].content_store 	misses[30] 	21729
scalar level3_network.node[30].content_store 	decision_yes[30] 	1040
scalar level3_network.node[30].content_store 	decision_no[30] 	20687
scalar level3_network.node[30].content_store 	decision_ratio[30] 	0.04786670962397
scalar level3_network.node[31].core_layer 	interests[31] 	14225
scalar level3_network.node[31].core_layer 	data[31] 	9454
scalar level3_network.node[31].content_store 	p_hit[31] 	0.33539543057996
scalar level3_network.node[31].content_store 	hits[31] 	4771
scalar level3_network.node[31].content_store 	misses[31] 	9454
scalar level3_network.node[31].content_store 	decision_yes[31] 	459
scalar level3_network.node[31].content_store 	decision_no[31] 	8995
scalar level3_network.node[31].content_store 	decision_ratio[31] 	0.048550877935265
scalar level3_network.node[32].core_layer 	interests[32] 	25912
scalar level3_network.node[32].core_layer 	repo_load[32] 	12728
scalar level3_network.node[32].core_layer 	data[32] 	9436
scalar level3_network.node[32].content_store 	p_hit[32] 	0.14460481630133
scalar level3_network.node[32].content_store 	hits[32] 	3747
scalar level3_network.node[32].content_store 	misses[32] 	22165
scalar level3_network.node[32].content_store 	decision_yes[32] 	1140
scalar level3_network.node[32].content_store 	decision_no[32] 	21024
scalar level3_network.node[32].content_store 	decision_ratio[32] 	0.05143475906876
scalar level3_network.node[33].core_layer 	interests[33] 	14376
scalar level3_network.node[33].core_layer 	data[33] 	9562
scalar level3_network.node[33].content_store 	p_hit[33] 	0.33479410127991
scalar level3_network.node[33].content_store 	hits[33] 	4813
scalar level3_network.node[33].content_store 	misses[33] 	9563
scalar level3_network.node[33].content_store 	decision_yes[33] 	486
scalar level3_network.node[33].content_store 	decision_no[33] 	9076
scalar level3_network.node[33].content_store 	decision_ratio[33] 	0.050826186990169
scalar level3_network.node[34].core_layer 	interests[34] 	14438
scalar level3_network.node[34].core_layer 	data[34] 	9517
scalar level3_network.node[34].content_store 	p_hit[34] 	0.34097520432193
scalar level3_network.node[34].content_store 	hits[34] 	4923
scalar level3_network.node[34].content_store 	misses[34] 	9515
scalar level3_network.node[34].content_store 	decision_yes[34] 	489
scalar level3_network.node[34].content_store 	decision_no[34] 	9028
scalar level3_network.node[34].content_store 	decision_ratio[34] 	0.051381737942629
scalar level3_network.node[35].core_layer 	interests[35] 	0
scalar level3_network.node[35].core_layer 	data[35] 	0
scalar level3_network.node[35].content_store 	p_hit[35] 	-nan
scalar level3_network.node[35].content_store 	hits[35] 	0
scalar level3_network.node[35].content_store 	misses[35] 	0
scalar level3_network.node[35].content_store 	decision_yes[35] 	0
scalar level3_network.node[35].content_store 	decision_no[35] 	0
scalar level3_network.node[35].content_store 	decision_ratio[35] 	0
scalar level3_network.node[36].core_layer 	interests[36] 	13964
scalar level3_network.node[36].core_layer 	data[36] 	9384
scalar level3_network.node[36].content_store 	p_hit[36] 	0.32798625035806
scalar level3_network.node[36].content_store 	hits[36] 	4580
scalar level3_network.node[36].content_store 	misses[36] 	9384
scalar level3_network.node[36].content_store 	decision_yes[36] 	492
scalar level3_network.node[36].content_store 	decision_no[36] 	8892
scalar level3_network.node[36].content_store 	decision_ratio[36] 	0.052429667519182
scalar level3_network.node[37].core_layer 	interests[37] 	14195
scalar level3_network.node[37].core_layer 	data[37] 	9364
scalar level3_network.node[37].content_store 	p_hit[37] 	0.3399084184572
scalar level3_network.node[37].content_store 	hits[37] 	4825
scalar level3_network.node[37].content_store 	misses[37] 	9370
scalar level3_network.node[37].content_store 	decision_yes[37] 	494
scalar level3_network.node[37].content_store 	decision_no[37] 	8870
scalar level3_network.node[37].content_store 	decision_ratio[37] 	0.052755232806493
scalar level3_network.node[38].core_layer 	interests[38] 	14364
scalar level3_network.node[38].core_layer 	data[38] 	9552
scalar level3_network.node[38].content_store 	p_hit[38] 	0.33500417710944
scalar level3_network.node[38].content_store 	hits[38] 	4812
scalar level3_network.node[38].content_store 	misses[38] 	9552
scalar level3_network.node[38].content_store 	decision_yes[38] 	449
scalar level3_network.node[38].content_store 	decision_no[38] 	9103
scalar level3_network.node[38].content_store 	decision_ratio[38] 	0.047005862646566
scalar level3_network.node[39].core_layer 	interests[39] 	14521
scalar level3_network.node[39].core_layer 	data[39] 	9425
scalar level3_network.node[39].content_store 	p_hit[39] 	0.3509400179051
scalar level3_network.node[39].content_store 	hits[39] 	5096
scalar level3_network.node[39].content_store 	misses[39] 	9425
scalar level3_network.node[39].content_store 	decision_yes[39] 	462
scalar level3_network.node[39].content_store 	decision_no[39] 	8963
scalar level3_network.node[39].content_store 	decision_ratio[39] 	0.049018567639257
scalar level3_network.node[40].core_layer 	interests[40] 	13321
scalar level3_network.node[40].core_layer 	data[40] 	9498
scalar level3_network.node[40].content_store 	p_hit[40] 	0.28684032730276
scalar level3_network.node[40].content_store 	hits[40] 	3821
scalar level3_network.node[40].content_store 	misses[40] 	9500
scalar level3_network.node[40].content_store 	decision_yes[40] 	473
scalar level3_network.node[40].content_store 	decision_no[40] 	9025
scalar level3_network.node[40].content_store 	decision_ratio[40] 	0.049799957885871
scalar level3_network.node[41].core_layer 	interests[41] 	0
scalar level3_network.node[41].core_layer 	data[41] 	0
scalar level3_network.node[41].content_store 	p_hit[41] 	-nan
scalar level3_network.node[41].content_store 	hits[41] 	0
scalar level3_network.node[41].content_store 	misses[41] 	0
scalar level3_network.node[41].content_store 	decision_yes[41] 	0
scalar level3_network.node[41].content_store 	decision_no[41] 	0
scalar level3_network.node[41].content_store 	decision_ratio[41] 	0
scalar level3_network.node[42].core_layer 	interests[42] 	14626
scalar level3_network.node[42].core_layer 	data[42] 	9427
scalar level3_network.node[42].content_store 	p_hit[42] 	0.35532613154656
scalar level3_network.node[42].content_store 	hits[42] 	5197
scalar level3_network.node[42].content_store 	misses[42] 	9429
scalar level3_network.node[42].content_store 	decision_yes[42] 	465
scalar level3_network.node[42].content_store 	decision_no[42] 	8962
scalar level3_network.node[42].content_store 	decision_ratio[42] 	0.049326402885329
scalar level3_network.node[43].core_layer 	interests[43] 	25203
scalar level3_network.node[43].core_layer 	repo_load[43] 	12781
scalar level3_network.node[43].core_layer 	data[43] 	9041
scalar level3_network.node[43].content_store 	p_hit[43] 	0.13415069634567
scalar level3_network.node[43].content_store 	hits[43] 	3381
scalar level3_network.node[43].content_store 	misses[43] 	21822
scalar level3_network.node[43].content_store 	decision_yes[43] 	1067
scalar level3_network.node[43].content_store 	decision_no[43] 	20755
scalar level3_network.node[43].content_store 	decision_ratio[43] 	0.048895609934928
scalar level3_network.node[44].core_layer 	interests[44] 	12693
scalar level3_network.node[44].core_layer 	repo_load[44] 	11099
scalar level3_network.node[44].core_layer 	data[44] 	0
scalar level3_network.node[44].content_store 	p_hit[44] 	0.12558102891357
scalar level3_network.node[44].content_store 	hits[44] 	1594
scalar level3_network.node[44].content_store 	misses[44] 	11099
scalar level3_network.node[44].content_store 	decision_yes[44] 	578
scalar level3_network.node[44].content_store 	decision_no[44] 	10521
scalar level3_network.node[44].content_store 	decision_ratio[44] 	0.052076763672403
scalar level3_network.node[45].core_layer 	interests[45] 	14096
scalar level3_network.node[45].core_layer 	data[45] 	9672
scalar level3_network.node[45].content_store 	p_hit[45] 	0.31377695800227
scalar level3_network.node[45].content_store 	hits[45] 	4423
scalar level3_network.node[45].content_store 	misses[45] 	9673
scalar level3_network.node[45].content_store 	decision_yes[45] 	490
scalar level3_network.node[45].content_store 	decision_no[45] 	9182
scalar level3_network.node[45].content_store 	decision_ratio[45] 	0.05066170388751
scalar level3_network.client[2] 	hdistance[2] 	1.8596040752091
scalar level3_network.client[2] 	downloads[2] 	12073
scalar level3_network.client[2] 	avg_time[2] 	0.0428569667
scalar level3_network.client[3] 	hdistance[3] 	1.7421875
scalar level3_network.client[3] 	downloads[3] 	12032
scalar level3_network.client[3] 	avg_time[3] 	0.041231654076
scalar level3_network.client[4] 	hdistance[4] 	1.9606914318956
scalar level3_network.client[4] 	downloads[4] 	12033
scalar level3_network.client[4] 	avg_time[4] 	0.0426142692
scalar level3_network.client[6] 	hdistance[6] 	2.0037941273507
scalar level3_network.client[6] 	downloads[6] 	12124
scalar level3_network.client[6] 	avg_time[6] 	0.028061875677
scalar level3_network.client[7] 	hdistance[7] 	1.5644202595228
scalar level3_network.client[7] 	downloads[7] 	11945
scalar level3_network.client[7] 	avg_time[7] 	0.023784764388
scalar level3_network.client[8] 	hdistance[8] 	1.5966943535532
scalar level3_network.client[8] 	downloads[8] 	11919
scalar level3_network.client[8] 	avg_time[8] 	0.025621888556
scalar level3_network.client[9] 	hdistance[9] 	1.7010696974762
scalar level3_network.client[9] 	downloads[9] 	11966
scalar level3_network.client[9] 	avg_time[9] 	0.027738330885
scalar level3_network.client[11] 	hdistance[11] 	1.4893354195833
scalar level3_network.client[11] 	downloads[11] 	12143
scalar level3_network.client[11] 	avg_time[11] 	0.023696540736
scalar level3_network.client[12] 	hdistance[12] 	1.9259446693657
scalar level3_network.client[12] 	downloads[12] 	11856
scalar level3_network.client[12] 	avg_time[12] 	0.035879622462
scalar level3_network.client[14] 	hdistance[14] 	1.9030528052805
scalar level3_network.client[14] 	downloads[14] 	12120
scalar level3_network.client[14] 	avg_time[14] 	0.025250411745
scalar level3_network.client[15] 	hdistance[15] 	1.9645616392341
scalar level3_network.client[15] 	downloads[15] 	11908
scalar level3_network.client[15] 	avg_time[15] 	0.040295704503
scalar level3_network.client[17] 	hdistance[17] 	1.4465143235635
scalar level3_network.client[17] 	downloads[17] 	12078
scalar level3_network.client[17] 	avg_time[17] 	0.033041497557
scalar level3_network.client[18] 	hdistance[18] 	1.4579772670704
scalar level3_network.client[18] 	downloads[18] 	12053
scalar level3_network.client[18] 	avg_time[18] 	0.022626916265
scalar level3_network.client[21] 	hdistance[21] 	2.4418604651163
scalar level3_network.client[21] 	downloads[21] 	11997
scalar level3_network.client[21] 	avg_time[21] 	0.042827616962
scalar level3_network.client[22] 	hdistance[22] 	1.9544231416078
scalar level3_network.client[22] 	downloads[22] 	11892
scalar level3_network.client[22] 	avg_time[22] 	0.027888475755
scalar level3_network.client[23] 	hdistance[23] 	1.9779485466088
scalar level3_network.client[23] 	downloads[23] 	11972
scalar level3_network.client[23] 	avg_time[23] 	0.023861308524
scalar level3_network.client[25] 	hdistance[25] 	2.0169110296568
scalar level3_network.client[25] 	downloads[25] 	12004
scalar level3_network.client[25] 	avg_time[25] 	0.024096415002
scalar level3_network.client[27] 	hdistance[27] 	1.999669257483
scalar level3_network.client[27] 	downloads[27] 	12094
scalar level3_network.client[27] 	avg_time[27] 	0.038099758172
scalar level3_network.client[28] 	hdistance[28] 	1.9528043207312
scalar level3_network.client[28] 	downloads[28] 	12035
scalar level3_network.client[28] 	avg_time[28] 	0.032257417855
scalar level3_network.client[30] 	hdistance[30] 	1.948334579284
scalar level3_network.client[30] 	downloads[30] 	12039
scalar level3_network.client[30] 	avg_time[30] 	0.025159534952
scalar level3_network.client[31] 	hdistance[31] 	1.9831526271893
scalar level3_network.client[31] 	downloads[31] 	11990
scalar level3_network.client[31] 	avg_time[31] 	0.041076125032
scalar level3_network.client[32] 	hdistance[32] 	1.9590454958302
scalar level3_network.client[32] 	downloads[32] 	12111
scalar level3_network.client[32] 	avg_time[32] 	0.033939667928
scalar level3_network.client[33] 	hdistance[33] 	1.9911818031976
scalar level3_network.client[33] 	downloads[33] 	12134
scalar level3_network.client[33] 	avg_time[33] 	0.03232433845
scalar level3_network.client[34] 	hdistance[34] 	1.9809311540367
scalar level3_network.client[34] 	downloads[34] 	12114
scalar level3_network.client[34] 	avg_time[34] 	0.041650843858
scalar level3_network.client[36] 	hdistance[36] 	2.0054310930075
scalar level3_network.client[36] 	downloads[36] 	11784
scalar level3_network.client[36] 	avg_time[36] 	0.026786110469
scalar level3_network.client[37] 	hdistance[37] 	1.9978966851758
scalar level3_network.client[37] 	downloads[37] 	11886
scalar level3_network.client[37] 	avg_time[37] 	0.031269373791
scalar level3_network.client[38] 	hdistance[38] 	1.9999164926931
scalar level3_network.client[38] 	downloads[38] 	11975
scalar level3_network.client[38] 	avg_time[38] 	0.040978206043
scalar level3_network.client[39] 	hdistance[39] 	1.9482960240561
scalar level3_network.client[39] 	downloads[39] 	11972
scalar level3_network.client[39] 	avg_time[39] 	0.025048187257
scalar level3_network.client[40] 	hdistance[40] 	2.2545469784595
scalar level3_network.client[40] 	downloads[40] 	11931
scalar level3_network.client[40] 	avg_time[40] 	0.030851782997
scalar level3_network.client[42] 	hdistance[42] 	1.9646240254841
scalar level3_network.client[42] 	downloads[42] 	11929
scalar level3_network.client[42] 	avg_time[42] 	0.044583424775
scalar level3_network.client[43] 	hdistance[43] 	2.4051622666891
scalar level3_network.client[43] 	downloads[43] 	11894
scalar level3_network.client[43] 	avg_time[43] 	0.044797725342
scalar level3_network.client[45] 	hdistance[45] 	2.0005758473182
scalar level3_network.client[45] 	downloads[45] 	12156
scalar level3_network.client[45] 	avg_time[45] 	0.049033408837
