version 2
run General-602-20160901-15:00:24-8710
attr a 0.9
attr cd tfc
attr configname General
attr cr lru
attr datetime 20160901-15:00:24
attr experiment General
attr fsize 1
attr inifile hw5115/scenario_Y/omnetp.ini
attr iterationvars "$name=tree_4_3, $un=10, $rep=1, $cd=tfc, $cr=lru, $fsize=1, $a=0.9, $sl=nrr, $ttl=1000, $variance=0.05"
attr iterationvars2 "$name=tree_4_3, $un=10, $rep=1, $cd=tfc, $cr=lru, $fsize=1, $a=0.9, $sl=nrr, $ttl=1000, $variance=0.05, $repetition=0"
attr measurement "$name=tree_4_3, $un=10, $rep=1, $cd=tfc, $cr=lru, $fsize=1, $a=0.9, $sl=nrr, $ttl=1000, $variance=0.05"
attr name tree_4_3
attr network networks.${name}_u${un}_r${rep}_network
attr processid 8710
attr rep 1
attr repetition 0
attr replication #0
attr resultdir results
attr runnumber 602
attr seedset 1
attr sl nrr
attr ttl 1000
attr un 10
attr variance 0.05

scalar . 	a 	0.9
scalar . 	fsize 	1
scalar . 	rep 	1
scalar . 	ttl 	1000
scalar . 	un 	10
scalar . 	variance 	0.05
scalar tree_4_3_u10_r1_network.content_distribution 	repo-0 	0
scalar tree_4_3_u10_r1_network.content_distribution 	client-0 	13
scalar tree_4_3_u10_r1_network.content_distribution 	client-1 	14
scalar tree_4_3_u10_r1_network.content_distribution 	client-2 	15
scalar tree_4_3_u10_r1_network.content_distribution 	client-3 	16
scalar tree_4_3_u10_r1_network.content_distribution 	client-4 	17
scalar tree_4_3_u10_r1_network.content_distribution 	client-5 	18
scalar tree_4_3_u10_r1_network.content_distribution 	client-6 	19
scalar tree_4_3_u10_r1_network.content_distribution 	client-7 	20
scalar tree_4_3_u10_r1_network.content_distribution 	client-8 	21
scalar tree_4_3_u10_r1_network.content_distribution 	client-9 	22
scalar tree_4_3_u10_r1_network.content_distribution 	client-10 	23
scalar tree_4_3_u10_r1_network.content_distribution 	client-11 	24
scalar tree_4_3_u10_r1_network.content_distribution 	client-12 	25
scalar tree_4_3_u10_r1_network.content_distribution 	client-13 	26
scalar tree_4_3_u10_r1_network.content_distribution 	client-14 	27
scalar tree_4_3_u10_r1_network.content_distribution 	client-15 	28
scalar tree_4_3_u10_r1_network.content_distribution 	client-16 	29
scalar tree_4_3_u10_r1_network.content_distribution 	client-17 	30
scalar tree_4_3_u10_r1_network.content_distribution 	client-18 	31
scalar tree_4_3_u10_r1_network.content_distribution 	client-19 	32
scalar tree_4_3_u10_r1_network.content_distribution 	client-20 	33
scalar tree_4_3_u10_r1_network.content_distribution 	client-21 	34
scalar tree_4_3_u10_r1_network.content_distribution 	client-22 	35
scalar tree_4_3_u10_r1_network.content_distribution 	client-23 	36
scalar tree_4_3_u10_r1_network.content_distribution 	client-24 	37
scalar tree_4_3_u10_r1_network.content_distribution 	client-25 	38
scalar tree_4_3_u10_r1_network.content_distribution 	client-26 	39
scalar tree_4_3_u10_r1_network.content_distribution 	repo-0_card 	100000
scalar tree_4_3_u10_r1_network.content_distribution 	repo-0_price 	0
scalar tree_4_3_u10_r1_network.statistics 	stabilization_time 	1926.7
scalar tree_4_3_u10_r1_network.statistics 	p_hit 	0.23850956970711
scalar tree_4_3_u10_r1_network.statistics 	interests 	24353.35
scalar tree_4_3_u10_r1_network.statistics 	data 	16243.6
scalar tree_4_3_u10_r1_network.statistics 	hdistance 	2.5844219110048
scalar tree_4_3_u10_r1_network.statistics 	avg_time 	0.004005924799
scalar tree_4_3_u10_r1_network.statistics 	downloads 	324389
scalar tree_4_3_u10_r1_network.statistics 	total_cost 	0
scalar tree_4_3_u10_r1_network.statistics 	total_replicas 	100000
scalar tree_4_3_u10_r1_network.statistics 	inner_hit 	0.41856228170499
scalar tree_4_3_u10_r1_network.node[0].core_layer 	interests[0] 	191890
scalar tree_4_3_u10_r1_network.node[0].core_layer 	repo_load[0] 	188612
scalar tree_4_3_u10_r1_network.node[0].core_layer 	data[0] 	0
scalar tree_4_3_u10_r1_network.node[0].core_layer 	repo_int[0] 	188612
scalar tree_4_3_u10_r1_network.node[0].content_store 	p_hit[0] 	0.017082703632289
scalar tree_4_3_u10_r1_network.node[0].content_store 	hits[0] 	3278
scalar tree_4_3_u10_r1_network.node[0].content_store 	misses[0] 	188612
scalar tree_4_3_u10_r1_network.node[0].content_store 	decision_yes[0] 	909
scalar tree_4_3_u10_r1_network.node[0].content_store 	decision_no[0] 	187703
scalar tree_4_3_u10_r1_network.node[0].content_store 	decision_ratio[0] 	0.0048194176404471
scalar tree_4_3_u10_r1_network.node[1].core_layer 	interests[1] 	140086
scalar tree_4_3_u10_r1_network.node[1].core_layer 	data[1] 	136677
scalar tree_4_3_u10_r1_network.node[1].content_store 	p_hit[1] 	0.024320774381451
scalar tree_4_3_u10_r1_network.node[1].content_store 	hits[1] 	3407
scalar tree_4_3_u10_r1_network.node[1].content_store 	misses[1] 	136679
scalar tree_4_3_u10_r1_network.node[1].content_store 	decision_yes[1] 	80
scalar tree_4_3_u10_r1_network.node[1].content_store 	decision_no[1] 	136597
scalar tree_4_3_u10_r1_network.node[1].content_store 	decision_ratio[1] 	0.0005853215976353
scalar tree_4_3_u10_r1_network.node[2].core_layer 	interests[2] 	55816
scalar tree_4_3_u10_r1_network.node[2].core_layer 	data[2] 	52547
scalar tree_4_3_u10_r1_network.node[2].content_store 	p_hit[2] 	0.058549519850939
scalar tree_4_3_u10_r1_network.node[2].content_store 	hits[2] 	3268
scalar tree_4_3_u10_r1_network.node[2].content_store 	misses[2] 	52548
scalar tree_4_3_u10_r1_network.node[2].content_store 	decision_yes[2] 	78
scalar tree_4_3_u10_r1_network.node[2].content_store 	decision_no[2] 	52469
scalar tree_4_3_u10_r1_network.node[2].content_store 	decision_ratio[2] 	0.0014843854073496
scalar tree_4_3_u10_r1_network.node[3].core_layer 	interests[3] 	11626
scalar tree_4_3_u10_r1_network.node[3].core_layer 	data[3] 	8461
scalar tree_4_3_u10_r1_network.node[3].content_store 	p_hit[3] 	0.27223464648202
scalar tree_4_3_u10_r1_network.node[3].content_store 	hits[3] 	3165
scalar tree_4_3_u10_r1_network.node[3].content_store 	misses[3] 	8461
scalar tree_4_3_u10_r1_network.node[3].content_store 	decision_yes[3] 	110
scalar tree_4_3_u10_r1_network.node[3].content_store 	decision_no[3] 	8351
scalar tree_4_3_u10_r1_network.node[3].content_store 	decision_ratio[3] 	0.013000827325375
scalar tree_4_3_u10_r1_network.node[4].core_layer 	interests[4] 	40860
scalar tree_4_3_u10_r1_network.node[4].core_layer 	data[4] 	38477
scalar tree_4_3_u10_r1_network.node[4].content_store 	p_hit[4] 	0.058296622613803
scalar tree_4_3_u10_r1_network.node[4].content_store 	hits[4] 	2382
scalar tree_4_3_u10_r1_network.node[4].content_store 	misses[4] 	38478
scalar tree_4_3_u10_r1_network.node[4].content_store 	decision_yes[4] 	62
scalar tree_4_3_u10_r1_network.node[4].content_store 	decision_no[4] 	38415
scalar tree_4_3_u10_r1_network.node[4].content_store 	decision_ratio[4] 	0.001611352236401
scalar tree_4_3_u10_r1_network.node[5].core_layer 	interests[5] 	27020
scalar tree_4_3_u10_r1_network.node[5].core_layer 	data[5] 	24196
scalar tree_4_3_u10_r1_network.node[5].content_store 	p_hit[5] 	0.10451517394523
scalar tree_4_3_u10_r1_network.node[5].content_store 	hits[5] 	2824
scalar tree_4_3_u10_r1_network.node[5].content_store 	misses[5] 	24196
scalar tree_4_3_u10_r1_network.node[5].content_store 	decision_yes[5] 	104
scalar tree_4_3_u10_r1_network.node[5].content_store 	decision_no[5] 	24092
scalar tree_4_3_u10_r1_network.node[5].content_store 	decision_ratio[5] 	0.0042982311125806
scalar tree_4_3_u10_r1_network.node[6].core_layer 	interests[6] 	11990
scalar tree_4_3_u10_r1_network.node[6].core_layer 	data[6] 	9467
scalar tree_4_3_u10_r1_network.node[6].content_store 	p_hit[6] 	0.21042535446205
scalar tree_4_3_u10_r1_network.node[6].content_store 	hits[6] 	2523
scalar tree_4_3_u10_r1_network.node[6].content_store 	misses[6] 	9467
scalar tree_4_3_u10_r1_network.node[6].content_store 	decision_yes[6] 	172
scalar tree_4_3_u10_r1_network.node[6].content_store 	decision_no[6] 	9295
scalar tree_4_3_u10_r1_network.node[6].content_store 	decision_ratio[6] 	0.018168374353016
scalar tree_4_3_u10_r1_network.node[7].core_layer 	interests[7] 	42324
scalar tree_4_3_u10_r1_network.node[7].core_layer 	data[7] 	39396
scalar tree_4_3_u10_r1_network.node[7].content_store 	p_hit[7] 	0.069204234004347
scalar tree_4_3_u10_r1_network.node[7].content_store 	hits[7] 	2929
scalar tree_4_3_u10_r1_network.node[7].content_store 	misses[7] 	39395
scalar tree_4_3_u10_r1_network.node[7].content_store 	decision_yes[7] 	103
scalar tree_4_3_u10_r1_network.node[7].content_store 	decision_no[7] 	39293
scalar tree_4_3_u10_r1_network.node[7].content_store 	decision_ratio[7] 	0.0026144786272718
scalar tree_4_3_u10_r1_network.node[8].core_layer 	interests[8] 	26209
scalar tree_4_3_u10_r1_network.node[8].core_layer 	data[8] 	24027
scalar tree_4_3_u10_r1_network.node[8].content_store 	p_hit[8] 	0.083253844099355
scalar tree_4_3_u10_r1_network.node[8].content_store 	hits[8] 	2182
scalar tree_4_3_u10_r1_network.node[8].content_store 	misses[8] 	24027
scalar tree_4_3_u10_r1_network.node[8].content_store 	decision_yes[8] 	82
scalar tree_4_3_u10_r1_network.node[8].content_store 	decision_no[8] 	23945
scalar tree_4_3_u10_r1_network.node[8].content_store 	decision_ratio[8] 	0.0034128272360261
scalar tree_4_3_u10_r1_network.node[9].core_layer 	interests[9] 	12069
scalar tree_4_3_u10_r1_network.node[9].core_layer 	data[9] 	9501
scalar tree_4_3_u10_r1_network.node[9].content_store 	p_hit[9] 	0.21269367801806
scalar tree_4_3_u10_r1_network.node[9].content_store 	hits[9] 	2567
scalar tree_4_3_u10_r1_network.node[9].content_store 	misses[9] 	9502
scalar tree_4_3_u10_r1_network.node[9].content_store 	decision_yes[9] 	171
scalar tree_4_3_u10_r1_network.node[9].content_store 	decision_no[9] 	9330
scalar tree_4_3_u10_r1_network.node[9].content_store 	decision_ratio[9] 	0.017998105462583
scalar tree_4_3_u10_r1_network.node[10].core_layer 	interests[10] 	41848
scalar tree_4_3_u10_r1_network.node[10].core_layer 	data[10] 	39295
scalar tree_4_3_u10_r1_network.node[10].content_store 	p_hit[10] 	0.061006499713248
scalar tree_4_3_u10_r1_network.node[10].content_store 	hits[10] 	2553
scalar tree_4_3_u10_r1_network.node[10].content_store 	misses[10] 	39295
scalar tree_4_3_u10_r1_network.node[10].content_store 	decision_yes[10] 	124
scalar tree_4_3_u10_r1_network.node[10].content_store 	decision_no[10] 	39171
scalar tree_4_3_u10_r1_network.node[10].content_store 	decision_ratio[10] 	0.0031556177630742
scalar tree_4_3_u10_r1_network.node[11].core_layer 	interests[11] 	27163
scalar tree_4_3_u10_r1_network.node[11].core_layer 	data[11] 	24664
scalar tree_4_3_u10_r1_network.node[11].content_store 	p_hit[11] 	0.091963332474322
scalar tree_4_3_u10_r1_network.node[11].content_store 	hits[11] 	2498
scalar tree_4_3_u10_r1_network.node[11].content_store 	misses[11] 	24665
scalar tree_4_3_u10_r1_network.node[11].content_store 	decision_yes[11] 	128
scalar tree_4_3_u10_r1_network.node[11].content_store 	decision_no[11] 	24536
scalar tree_4_3_u10_r1_network.node[11].content_store 	decision_ratio[11] 	0.0051897502432695
scalar tree_4_3_u10_r1_network.node[12].core_layer 	interests[12] 	10821
scalar tree_4_3_u10_r1_network.node[12].core_layer 	data[12] 	8526
scalar tree_4_3_u10_r1_network.node[12].content_store 	p_hit[12] 	0.21208760743
scalar tree_4_3_u10_r1_network.node[12].content_store 	hits[12] 	2295
scalar tree_4_3_u10_r1_network.node[12].content_store 	misses[12] 	8526
scalar tree_4_3_u10_r1_network.node[12].content_store 	decision_yes[12] 	77
scalar tree_4_3_u10_r1_network.node[12].content_store 	decision_no[12] 	8449
scalar tree_4_3_u10_r1_network.node[12].content_store 	decision_ratio[12] 	0.0090311986863711
scalar tree_4_3_u10_r1_network.node[13].core_layer 	interests[13] 	12075
scalar tree_4_3_u10_r1_network.node[13].core_layer 	data[13] 	8525
scalar tree_4_3_u10_r1_network.node[13].content_store 	p_hit[13] 	0.29399585921325
scalar tree_4_3_u10_r1_network.node[13].content_store 	hits[13] 	3550
scalar tree_4_3_u10_r1_network.node[13].content_store 	misses[13] 	8525
scalar tree_4_3_u10_r1_network.node[13].content_store 	decision_yes[13] 	25
scalar tree_4_3_u10_r1_network.node[13].content_store 	decision_no[13] 	8500
scalar tree_4_3_u10_r1_network.node[13].content_store 	decision_ratio[13] 	0.0029325513196481
scalar tree_4_3_u10_r1_network.node[14].core_layer 	interests[14] 	12602
scalar tree_4_3_u10_r1_network.node[14].core_layer 	data[14] 	8778
scalar tree_4_3_u10_r1_network.node[14].content_store 	p_hit[14] 	0.303443897794
scalar tree_4_3_u10_r1_network.node[14].content_store 	hits[14] 	3824
scalar tree_4_3_u10_r1_network.node[14].content_store 	misses[14] 	8778
scalar tree_4_3_u10_r1_network.node[14].content_store 	decision_yes[14] 	45
scalar tree_4_3_u10_r1_network.node[14].content_store 	decision_no[14] 	8733
scalar tree_4_3_u10_r1_network.node[14].content_store 	decision_ratio[14] 	0.0051264524948735
scalar tree_4_3_u10_r1_network.node[15].core_layer 	interests[15] 	12394
scalar tree_4_3_u10_r1_network.node[15].core_layer 	data[15] 	8680
scalar tree_4_3_u10_r1_network.node[15].content_store 	p_hit[15] 	0.29966112635146
scalar tree_4_3_u10_r1_network.node[15].content_store 	hits[15] 	3714
scalar tree_4_3_u10_r1_network.node[15].content_store 	misses[15] 	8680
scalar tree_4_3_u10_r1_network.node[15].content_store 	decision_yes[15] 	44
scalar tree_4_3_u10_r1_network.node[15].content_store 	decision_no[15] 	8636
scalar tree_4_3_u10_r1_network.node[15].content_store 	decision_ratio[15] 	0.0050691244239631
scalar tree_4_3_u10_r1_network.node[16].core_layer 	interests[16] 	12416
scalar tree_4_3_u10_r1_network.node[16].core_layer 	data[16] 	8680
scalar tree_4_3_u10_r1_network.node[16].content_store 	p_hit[16] 	0.30090206185567
scalar tree_4_3_u10_r1_network.node[16].content_store 	hits[16] 	3736
scalar tree_4_3_u10_r1_network.node[16].content_store 	misses[16] 	8680
scalar tree_4_3_u10_r1_network.node[16].content_store 	decision_yes[16] 	28
scalar tree_4_3_u10_r1_network.node[16].content_store 	decision_no[16] 	8652
scalar tree_4_3_u10_r1_network.node[16].content_store 	decision_ratio[16] 	0.0032258064516129
scalar tree_4_3_u10_r1_network.node[17].core_layer 	interests[17] 	12273
scalar tree_4_3_u10_r1_network.node[17].core_layer 	data[17] 	8677
scalar tree_4_3_u10_r1_network.node[17].content_store 	p_hit[17] 	0.29300089627638
scalar tree_4_3_u10_r1_network.node[17].content_store 	hits[17] 	3596
scalar tree_4_3_u10_r1_network.node[17].content_store 	misses[17] 	8677
scalar tree_4_3_u10_r1_network.node[17].content_store 	decision_yes[17] 	22
scalar tree_4_3_u10_r1_network.node[17].content_store 	decision_no[17] 	8655
scalar tree_4_3_u10_r1_network.node[17].content_store 	decision_ratio[17] 	0.002535438515616
scalar tree_4_3_u10_r1_network.node[18].core_layer 	interests[18] 	12384
scalar tree_4_3_u10_r1_network.node[18].core_layer 	data[18] 	8595
scalar tree_4_3_u10_r1_network.node[18].content_store 	p_hit[18] 	0.30595930232558
scalar tree_4_3_u10_r1_network.node[18].content_store 	hits[18] 	3789
scalar tree_4_3_u10_r1_network.node[18].content_store 	misses[18] 	8595
scalar tree_4_3_u10_r1_network.node[18].content_store 	decision_yes[18] 	55
scalar tree_4_3_u10_r1_network.node[18].content_store 	decision_no[18] 	8540
scalar tree_4_3_u10_r1_network.node[18].content_store 	decision_ratio[18] 	0.0063990692262944
scalar tree_4_3_u10_r1_network.node[19].core_layer 	interests[19] 	12303
scalar tree_4_3_u10_r1_network.node[19].core_layer 	data[19] 	8659
scalar tree_4_3_u10_r1_network.node[19].content_store 	p_hit[19] 	0.29618792164513
scalar tree_4_3_u10_r1_network.node[19].content_store 	hits[19] 	3644
scalar tree_4_3_u10_r1_network.node[19].content_store 	misses[19] 	8659
scalar tree_4_3_u10_r1_network.node[19].content_store 	decision_yes[19] 	35
scalar tree_4_3_u10_r1_network.node[19].content_store 	decision_no[19] 	8624
scalar tree_4_3_u10_r1_network.node[19].content_store 	decision_ratio[19] 	0.0040420371867421
scalar tree_4_3_u10_r1_network.node[20].core_layer 	interests[20] 	12492
scalar tree_4_3_u10_r1_network.node[20].core_layer 	data[20] 	8699
scalar tree_4_3_u10_r1_network.node[20].content_store 	p_hit[20] 	0.30363432596862
scalar tree_4_3_u10_r1_network.node[20].content_store 	hits[20] 	3793
scalar tree_4_3_u10_r1_network.node[20].content_store 	misses[20] 	8699
scalar tree_4_3_u10_r1_network.node[20].content_store 	decision_yes[20] 	50
scalar tree_4_3_u10_r1_network.node[20].content_store 	decision_no[20] 	8649
scalar tree_4_3_u10_r1_network.node[20].content_store 	decision_ratio[20] 	0.0057477871019657
scalar tree_4_3_u10_r1_network.node[21].core_layer 	interests[21] 	12259
scalar tree_4_3_u10_r1_network.node[21].core_layer 	data[21] 	8589
scalar tree_4_3_u10_r1_network.node[21].content_store 	p_hit[21] 	0.29937189003997
scalar tree_4_3_u10_r1_network.node[21].content_store 	hits[21] 	3670
scalar tree_4_3_u10_r1_network.node[21].content_store 	misses[21] 	8589
scalar tree_4_3_u10_r1_network.node[21].content_store 	decision_yes[21] 	23
scalar tree_4_3_u10_r1_network.node[21].content_store 	decision_no[21] 	8566
scalar tree_4_3_u10_r1_network.node[21].content_store 	decision_ratio[21] 	0.0026778437536384
scalar tree_4_3_u10_r1_network.node[22].core_layer 	interests[22] 	12468
scalar tree_4_3_u10_r1_network.node[22].core_layer 	data[22] 	8769
scalar tree_4_3_u10_r1_network.node[22].content_store 	p_hit[22] 	0.2967597048444
scalar tree_4_3_u10_r1_network.node[22].content_store 	hits[22] 	3700
scalar tree_4_3_u10_r1_network.node[22].content_store 	misses[22] 	8768
scalar tree_4_3_u10_r1_network.node[22].content_store 	decision_yes[22] 	17
scalar tree_4_3_u10_r1_network.node[22].content_store 	decision_no[22] 	8752
scalar tree_4_3_u10_r1_network.node[22].content_store 	decision_ratio[22] 	0.0019386475082678
scalar tree_4_3_u10_r1_network.node[23].core_layer 	interests[23] 	12404
scalar tree_4_3_u10_r1_network.node[23].core_layer 	data[23] 	8713
scalar tree_4_3_u10_r1_network.node[23].content_store 	p_hit[23] 	0.29756530151564
scalar tree_4_3_u10_r1_network.node[23].content_store 	hits[23] 	3691
scalar tree_4_3_u10_r1_network.node[23].content_store 	misses[23] 	8713
scalar tree_4_3_u10_r1_network.node[23].content_store 	decision_yes[23] 	45
scalar tree_4_3_u10_r1_network.node[23].content_store 	decision_no[23] 	8668
scalar tree_4_3_u10_r1_network.node[23].content_store 	decision_ratio[23] 	0.0051646964306209
scalar tree_4_3_u10_r1_network.node[24].core_layer 	interests[24] 	12357
scalar tree_4_3_u10_r1_network.node[24].core_layer 	data[24] 	8596
scalar tree_4_3_u10_r1_network.node[24].content_store 	p_hit[24] 	0.30436190013757
scalar tree_4_3_u10_r1_network.node[24].content_store 	hits[24] 	3761
scalar tree_4_3_u10_r1_network.node[24].content_store 	misses[24] 	8596
scalar tree_4_3_u10_r1_network.node[24].content_store 	decision_yes[24] 	43
scalar tree_4_3_u10_r1_network.node[24].content_store 	decision_no[24] 	8553
scalar tree_4_3_u10_r1_network.node[24].content_store 	decision_ratio[24] 	0.0050023266635644
scalar tree_4_3_u10_r1_network.node[25].core_layer 	interests[25] 	12412
scalar tree_4_3_u10_r1_network.node[25].core_layer 	data[25] 	8704
scalar tree_4_3_u10_r1_network.node[25].content_store 	p_hit[25] 	0.29874315178859
scalar tree_4_3_u10_r1_network.node[25].content_store 	hits[25] 	3708
scalar tree_4_3_u10_r1_network.node[25].content_store 	misses[25] 	8704
scalar tree_4_3_u10_r1_network.node[25].content_store 	decision_yes[25] 	48
scalar tree_4_3_u10_r1_network.node[25].content_store 	decision_no[25] 	8656
scalar tree_4_3_u10_r1_network.node[25].content_store 	decision_ratio[25] 	0.0055147058823529
scalar tree_4_3_u10_r1_network.node[26].core_layer 	interests[26] 	12276
scalar tree_4_3_u10_r1_network.node[26].core_layer 	data[26] 	8688
scalar tree_4_3_u10_r1_network.node[26].content_store 	p_hit[26] 	0.29227761485826
scalar tree_4_3_u10_r1_network.node[26].content_store 	hits[26] 	3588
scalar tree_4_3_u10_r1_network.node[26].content_store 	misses[26] 	8688
scalar tree_4_3_u10_r1_network.node[26].content_store 	decision_yes[26] 	23
scalar tree_4_3_u10_r1_network.node[26].content_store 	decision_no[26] 	8665
scalar tree_4_3_u10_r1_network.node[26].content_store 	decision_ratio[26] 	0.0026473296500921
scalar tree_4_3_u10_r1_network.node[27].core_layer 	interests[27] 	12539
scalar tree_4_3_u10_r1_network.node[27].core_layer 	data[27] 	8841
scalar tree_4_3_u10_r1_network.node[27].content_store 	p_hit[27] 	0.29491985006779
scalar tree_4_3_u10_r1_network.node[27].content_store 	hits[27] 	3698
scalar tree_4_3_u10_r1_network.node[27].content_store 	misses[27] 	8841
scalar tree_4_3_u10_r1_network.node[27].content_store 	decision_yes[27] 	45
scalar tree_4_3_u10_r1_network.node[27].content_store 	decision_no[27] 	8796
scalar tree_4_3_u10_r1_network.node[27].content_store 	decision_ratio[27] 	0.00508992195453
scalar tree_4_3_u10_r1_network.node[28].core_layer 	interests[28] 	12655
scalar tree_4_3_u10_r1_network.node[28].core_layer 	data[28] 	8811
scalar tree_4_3_u10_r1_network.node[28].content_store 	p_hit[28] 	0.30367443698143
scalar tree_4_3_u10_r1_network.node[28].content_store 	hits[28] 	3843
scalar tree_4_3_u10_r1_network.node[28].content_store 	misses[28] 	8812
scalar tree_4_3_u10_r1_network.node[28].content_store 	decision_yes[28] 	41
scalar tree_4_3_u10_r1_network.node[28].content_store 	decision_no[28] 	8770
scalar tree_4_3_u10_r1_network.node[28].content_store 	decision_ratio[28] 	0.0046532743161957
scalar tree_4_3_u10_r1_network.node[29].core_layer 	interests[29] 	12585
scalar tree_4_3_u10_r1_network.node[29].core_layer 	data[29] 	8727
scalar tree_4_3_u10_r1_network.node[29].content_store 	p_hit[29] 	0.30655542312277
scalar tree_4_3_u10_r1_network.node[29].content_store 	hits[29] 	3858
scalar tree_4_3_u10_r1_network.node[29].content_store 	misses[29] 	8727
scalar tree_4_3_u10_r1_network.node[29].content_store 	decision_yes[29] 	37
scalar tree_4_3_u10_r1_network.node[29].content_store 	decision_no[29] 	8690
scalar tree_4_3_u10_r1_network.node[29].content_store 	decision_ratio[29] 	0.0042397158244528
scalar tree_4_3_u10_r1_network.node[30].core_layer 	interests[30] 	12267
scalar tree_4_3_u10_r1_network.node[30].core_layer 	data[30] 	8677
scalar tree_4_3_u10_r1_network.node[30].content_store 	p_hit[30] 	0.29257357137034
scalar tree_4_3_u10_r1_network.node[30].content_store 	hits[30] 	3589
scalar tree_4_3_u10_r1_network.node[30].content_store 	misses[30] 	8678
scalar tree_4_3_u10_r1_network.node[30].content_store 	decision_yes[30] 	34
scalar tree_4_3_u10_r1_network.node[30].content_store 	decision_no[30] 	8643
scalar tree_4_3_u10_r1_network.node[30].content_store 	decision_ratio[30] 	0.0039184049786793
scalar tree_4_3_u10_r1_network.node[31].core_layer 	interests[31] 	12231
scalar tree_4_3_u10_r1_network.node[31].core_layer 	data[31] 	8564
scalar tree_4_3_u10_r1_network.node[31].content_store 	p_hit[31] 	0.29981195323359
scalar tree_4_3_u10_r1_network.node[31].content_store 	hits[31] 	3667
scalar tree_4_3_u10_r1_network.node[31].content_store 	misses[31] 	8564
scalar tree_4_3_u10_r1_network.node[31].content_store 	decision_yes[31] 	27
scalar tree_4_3_u10_r1_network.node[31].content_store 	decision_no[31] 	8537
scalar tree_4_3_u10_r1_network.node[31].content_store 	decision_ratio[31] 	0.0031527323680523
scalar tree_4_3_u10_r1_network.node[32].core_layer 	interests[32] 	12698
scalar tree_4_3_u10_r1_network.node[32].core_layer 	data[32] 	8798
scalar tree_4_3_u10_r1_network.node[32].content_store 	p_hit[32] 	0.30713498188691
scalar tree_4_3_u10_r1_network.node[32].content_store 	hits[32] 	3900
scalar tree_4_3_u10_r1_network.node[32].content_store 	misses[32] 	8798
scalar tree_4_3_u10_r1_network.node[32].content_store 	decision_yes[32] 	42
scalar tree_4_3_u10_r1_network.node[32].content_store 	decision_no[32] 	8756
scalar tree_4_3_u10_r1_network.node[32].content_store 	decision_ratio[32] 	0.0047738122300523
scalar tree_4_3_u10_r1_network.node[33].core_layer 	interests[33] 	12465
scalar tree_4_3_u10_r1_network.node[33].core_layer 	data[33] 	8792
scalar tree_4_3_u10_r1_network.node[33].content_store 	p_hit[33] 	0.29466506217409
scalar tree_4_3_u10_r1_network.node[33].content_store 	hits[33] 	3673
scalar tree_4_3_u10_r1_network.node[33].content_store 	misses[33] 	8792
scalar tree_4_3_u10_r1_network.node[33].content_store 	decision_yes[33] 	49
scalar tree_4_3_u10_r1_network.node[33].content_store 	decision_no[33] 	8743
scalar tree_4_3_u10_r1_network.node[33].content_store 	decision_ratio[33] 	0.0055732484076433
scalar tree_4_3_u10_r1_network.node[34].core_layer 	interests[34] 	12446
scalar tree_4_3_u10_r1_network.node[34].core_layer 	data[34] 	8671
scalar tree_4_3_u10_r1_network.node[34].content_store 	p_hit[34] 	0.30331030049815
scalar tree_4_3_u10_r1_network.node[34].content_store 	hits[34] 	3775
scalar tree_4_3_u10_r1_network.node[34].content_store 	misses[34] 	8671
scalar tree_4_3_u10_r1_network.node[34].content_store 	decision_yes[34] 	44
scalar tree_4_3_u10_r1_network.node[34].content_store 	decision_no[34] 	8627
scalar tree_4_3_u10_r1_network.node[34].content_store 	decision_ratio[34] 	0.0050743858839811
scalar tree_4_3_u10_r1_network.node[35].core_layer 	interests[35] 	12126
scalar tree_4_3_u10_r1_network.node[35].core_layer 	data[35] 	8571
scalar tree_4_3_u10_r1_network.node[35].content_store 	p_hit[35] 	0.29317169717961
scalar tree_4_3_u10_r1_network.node[35].content_store 	hits[35] 	3555
scalar tree_4_3_u10_r1_network.node[35].content_store 	misses[35] 	8571
scalar tree_4_3_u10_r1_network.node[35].content_store 	decision_yes[35] 	34
scalar tree_4_3_u10_r1_network.node[35].content_store 	decision_no[35] 	8537
scalar tree_4_3_u10_r1_network.node[35].content_store 	decision_ratio[35] 	0.0039668650099172
scalar tree_4_3_u10_r1_network.node[36].core_layer 	interests[36] 	12428
scalar tree_4_3_u10_r1_network.node[36].core_layer 	data[36] 	8741
scalar tree_4_3_u10_r1_network.node[36].content_store 	p_hit[36] 	0.2965883488896
scalar tree_4_3_u10_r1_network.node[36].content_store 	hits[36] 	3686
scalar tree_4_3_u10_r1_network.node[36].content_store 	misses[36] 	8742
scalar tree_4_3_u10_r1_network.node[36].content_store 	decision_yes[36] 	43
scalar tree_4_3_u10_r1_network.node[36].content_store 	decision_no[36] 	8698
scalar tree_4_3_u10_r1_network.node[36].content_store 	decision_ratio[36] 	0.0049193456126301
scalar tree_4_3_u10_r1_network.node[37].core_layer 	interests[37] 	12346
scalar tree_4_3_u10_r1_network.node[37].core_layer 	data[37] 	8645
scalar tree_4_3_u10_r1_network.node[37].content_store 	p_hit[37] 	0.29977320589665
scalar tree_4_3_u10_r1_network.node[37].content_store 	hits[37] 	3701
scalar tree_4_3_u10_r1_network.node[37].content_store 	misses[37] 	8645
scalar tree_4_3_u10_r1_network.node[37].content_store 	decision_yes[37] 	50
scalar tree_4_3_u10_r1_network.node[37].content_store 	decision_no[37] 	8595
scalar tree_4_3_u10_r1_network.node[37].content_store 	decision_ratio[37] 	0.0057836899942163
scalar tree_4_3_u10_r1_network.node[38].core_layer 	interests[38] 	12452
scalar tree_4_3_u10_r1_network.node[38].core_layer 	data[38] 	8779
scalar tree_4_3_u10_r1_network.node[38].content_store 	p_hit[38] 	0.29497269514937
scalar tree_4_3_u10_r1_network.node[38].content_store 	hits[38] 	3673
scalar tree_4_3_u10_r1_network.node[38].content_store 	misses[38] 	8779
scalar tree_4_3_u10_r1_network.node[38].content_store 	decision_yes[38] 	42
scalar tree_4_3_u10_r1_network.node[38].content_store 	decision_no[38] 	8737
scalar tree_4_3_u10_r1_network.node[38].content_store 	decision_ratio[38] 	0.0047841439799522
scalar tree_4_3_u10_r1_network.node[39].core_layer 	interests[39] 	12059
scalar tree_4_3_u10_r1_network.node[39].core_layer 	data[39] 	8541
scalar tree_4_3_u10_r1_network.node[39].content_store 	p_hit[39] 	0.29173231611245
scalar tree_4_3_u10_r1_network.node[39].content_store 	hits[39] 	3518
scalar tree_4_3_u10_r1_network.node[39].content_store 	misses[39] 	8541
scalar tree_4_3_u10_r1_network.node[39].content_store 	decision_yes[39] 	20
scalar tree_4_3_u10_r1_network.node[39].content_store 	decision_no[39] 	8521
scalar tree_4_3_u10_r1_network.node[39].content_store 	decision_ratio[39] 	0.0023416461772626
scalar tree_4_3_u10_r1_network.client[13] 	hdistance[13] 	2.6181634881962
scalar tree_4_3_u10_r1_network.client[13] 	downloads[13] 	11903
scalar tree_4_3_u10_r1_network.client[13] 	avg_time[13] 	0.004061113651
scalar tree_4_3_u10_r1_network.client[14] 	hdistance[14] 	2.5813065493484
scalar tree_4_3_u10_r1_network.client[14] 	downloads[14] 	12047
scalar tree_4_3_u10_r1_network.client[14] 	avg_time[14] 	0.003999410941
scalar tree_4_3_u10_r1_network.client[15] 	hdistance[15] 	2.5795549606826
scalar tree_4_3_u10_r1_network.client[15] 	downloads[15] 	11954
scalar tree_4_3_u10_r1_network.client[15] 	avg_time[15] 	0.003994977779
scalar tree_4_3_u10_r1_network.client[16] 	hdistance[16] 	2.5750686984761
scalar tree_4_3_u10_r1_network.client[16] 	downloads[16] 	12009
scalar tree_4_3_u10_r1_network.client[16] 	avg_time[16] 	0.003993168757
scalar tree_4_3_u10_r1_network.client[17] 	hdistance[17] 	2.587972166998
scalar tree_4_3_u10_r1_network.client[17] 	downloads[17] 	12072
scalar tree_4_3_u10_r1_network.client[17] 	avg_time[17] 	0.004031640444
scalar tree_4_3_u10_r1_network.client[18] 	hdistance[18] 	2.5382221848457
scalar tree_4_3_u10_r1_network.client[18] 	downloads[18] 	11891
scalar tree_4_3_u10_r1_network.client[18] 	avg_time[18] 	0.003935242141
scalar tree_4_3_u10_r1_network.client[19] 	hdistance[19] 	2.5915611814346
scalar tree_4_3_u10_r1_network.client[19] 	downloads[19] 	11850
scalar tree_4_3_u10_r1_network.client[19] 	avg_time[19] 	0.004014849352
scalar tree_4_3_u10_r1_network.client[20] 	hdistance[20] 	2.545726637845
scalar tree_4_3_u10_r1_network.client[20] 	downloads[20] 	12028
scalar tree_4_3_u10_r1_network.client[20] 	avg_time[20] 	0.00394579015
scalar tree_4_3_u10_r1_network.client[21] 	hdistance[21] 	2.5722328007285
scalar tree_4_3_u10_r1_network.client[21] 	downloads[21] 	12079
scalar tree_4_3_u10_r1_network.client[21] 	avg_time[21] 	0.003999334679
scalar tree_4_3_u10_r1_network.client[22] 	hdistance[22] 	2.5936144085141
scalar tree_4_3_u10_r1_network.client[22] 	downloads[22] 	12215
scalar tree_4_3_u10_r1_network.client[22] 	avg_time[22] 	0.004034708374
scalar tree_4_3_u10_r1_network.client[23] 	hdistance[23] 	2.5786563913553
scalar tree_4_3_u10_r1_network.client[23] 	downloads[23] 	11938
scalar tree_4_3_u10_r1_network.client[23] 	avg_time[23] 	0.00400066717
scalar tree_4_3_u10_r1_network.client[24] 	hdistance[24] 	2.5601418080527
scalar tree_4_3_u10_r1_network.client[24] 	downloads[24] 	11847
scalar tree_4_3_u10_r1_network.client[24] 	avg_time[24] 	0.003968765482
scalar tree_4_3_u10_r1_network.client[25] 	hdistance[25] 	2.5843428857883
scalar tree_4_3_u10_r1_network.client[25] 	downloads[25] 	11969
scalar tree_4_3_u10_r1_network.client[25] 	avg_time[25] 	0.004003673152
scalar tree_4_3_u10_r1_network.client[26] 	hdistance[26] 	2.6424981461646
scalar tree_4_3_u10_r1_network.client[26] 	downloads[26] 	12137
scalar tree_4_3_u10_r1_network.client[26] 	avg_time[26] 	0.004090793696
scalar tree_4_3_u10_r1_network.client[27] 	hdistance[27] 	2.6076064489459
scalar tree_4_3_u10_r1_network.client[27] 	downloads[27] 	12095
scalar tree_4_3_u10_r1_network.client[27] 	avg_time[27] 	0.004029430596
scalar tree_4_3_u10_r1_network.client[28] 	hdistance[28] 	2.571605447792
scalar tree_4_3_u10_r1_network.client[28] 	downloads[28] 	12115
scalar tree_4_3_u10_r1_network.client[28] 	avg_time[28] 	0.003980658264
scalar tree_4_3_u10_r1_network.client[29] 	hdistance[29] 	2.5607862570202
scalar tree_4_3_u10_r1_network.client[29] 	downloads[29] 	12108
scalar tree_4_3_u10_r1_network.client[29] 	avg_time[29] 	0.003962666279
scalar tree_4_3_u10_r1_network.client[30] 	hdistance[30] 	2.6003976143141
scalar tree_4_3_u10_r1_network.client[30] 	downloads[30] 	12072
scalar tree_4_3_u10_r1_network.client[30] 	avg_time[30] 	0.004036610624
scalar tree_4_3_u10_r1_network.client[31] 	hdistance[31] 	2.5803764784275
scalar tree_4_3_u10_r1_network.client[31] 	downloads[31] 	12006
scalar tree_4_3_u10_r1_network.client[31] 	avg_time[31] 	0.004008992491
scalar tree_4_3_u10_r1_network.client[32] 	hdistance[32] 	2.5666089251835
scalar tree_4_3_u10_r1_network.client[32] 	downloads[32] 	12123
scalar tree_4_3_u10_r1_network.client[32] 	avg_time[32] 	0.00397725893
scalar tree_4_3_u10_r1_network.client[33] 	hdistance[33] 	2.59707325185
scalar tree_4_3_u10_r1_network.client[33] 	downloads[33] 	12027
scalar tree_4_3_u10_r1_network.client[33] 	avg_time[33] 	0.004018954333
scalar tree_4_3_u10_r1_network.client[34] 	hdistance[34] 	2.5556951423786
scalar tree_4_3_u10_r1_network.client[34] 	downloads[34] 	11940
scalar tree_4_3_u10_r1_network.client[34] 	avg_time[34] 	0.003967166165
scalar tree_4_3_u10_r1_network.client[35] 	hdistance[35] 	2.6038146227204
scalar tree_4_3_u10_r1_network.client[35] 	downloads[35] 	11954
scalar tree_4_3_u10_r1_network.client[35] 	avg_time[35] 	0.004042995178
scalar tree_4_3_u10_r1_network.client[36] 	hdistance[36] 	2.5750350631136
scalar tree_4_3_u10_r1_network.client[36] 	downloads[36] 	12121
scalar tree_4_3_u10_r1_network.client[36] 	avg_time[36] 	0.00398003161
scalar tree_4_3_u10_r1_network.client[37] 	hdistance[37] 	2.5674882629108
scalar tree_4_3_u10_r1_network.client[37] 	downloads[37] 	11928
scalar tree_4_3_u10_r1_network.client[37] 	avg_time[37] 	0.003979540969
scalar tree_4_3_u10_r1_network.client[38] 	hdistance[38] 	2.6096545984186
scalar tree_4_3_u10_r1_network.client[38] 	downloads[38] 	12015
scalar tree_4_3_u10_r1_network.client[38] 	avg_time[38] 	0.004031214977
scalar tree_4_3_u10_r1_network.client[39] 	hdistance[39] 	2.6341871756236
scalar tree_4_3_u10_r1_network.client[39] 	downloads[39] 	11946
scalar tree_4_3_u10_r1_network.client[39] 	avg_time[39] 	0.004070313413
