version 2
run General-629-20160901-15:55:08-8710
attr a 0.9
attr cd tfc
attr configname General
attr cr lru
attr datetime 20160901-15:55:08
attr experiment General
attr fsize 1
attr inifile hw5115/scenario_Y/omnetp.ini
attr iterationvars "$name=tree_4_3, $un=10, $rep=10, $cd=tfc, $cr=lru, $fsize=1, $a=0.9, $sl=nrr, $ttl=1000, $variance=0.05"
attr iterationvars2 "$name=tree_4_3, $un=10, $rep=10, $cd=tfc, $cr=lru, $fsize=1, $a=0.9, $sl=nrr, $ttl=1000, $variance=0.05, $repetition=0"
attr measurement "$name=tree_4_3, $un=10, $rep=10, $cd=tfc, $cr=lru, $fsize=1, $a=0.9, $sl=nrr, $ttl=1000, $variance=0.05"
attr name tree_4_3
attr network networks.${name}_u${un}_r${rep}_network
attr processid 8710
attr rep 10
attr repetition 0
attr replication #0
attr resultdir results
attr runnumber 629
attr seedset 10
attr sl nrr
attr ttl 1000
attr un 10
attr variance 0.05

scalar . 	a 	0.9
scalar . 	fsize 	1
scalar . 	rep 	10
scalar . 	ttl 	1000
scalar . 	un 	10
scalar . 	variance 	0.05
scalar tree_4_3_u10_r10_network.content_distribution 	repo-0 	0
scalar tree_4_3_u10_r10_network.content_distribution 	client-0 	13
scalar tree_4_3_u10_r10_network.content_distribution 	client-1 	14
scalar tree_4_3_u10_r10_network.content_distribution 	client-2 	15
scalar tree_4_3_u10_r10_network.content_distribution 	client-3 	16
scalar tree_4_3_u10_r10_network.content_distribution 	client-4 	17
scalar tree_4_3_u10_r10_network.content_distribution 	client-5 	18
scalar tree_4_3_u10_r10_network.content_distribution 	client-6 	19
scalar tree_4_3_u10_r10_network.content_distribution 	client-7 	20
scalar tree_4_3_u10_r10_network.content_distribution 	client-8 	21
scalar tree_4_3_u10_r10_network.content_distribution 	client-9 	22
scalar tree_4_3_u10_r10_network.content_distribution 	client-10 	23
scalar tree_4_3_u10_r10_network.content_distribution 	client-11 	24
scalar tree_4_3_u10_r10_network.content_distribution 	client-12 	25
scalar tree_4_3_u10_r10_network.content_distribution 	client-13 	26
scalar tree_4_3_u10_r10_network.content_distribution 	client-14 	27
scalar tree_4_3_u10_r10_network.content_distribution 	client-15 	28
scalar tree_4_3_u10_r10_network.content_distribution 	client-16 	29
scalar tree_4_3_u10_r10_network.content_distribution 	client-17 	30
scalar tree_4_3_u10_r10_network.content_distribution 	client-18 	31
scalar tree_4_3_u10_r10_network.content_distribution 	client-19 	32
scalar tree_4_3_u10_r10_network.content_distribution 	client-20 	33
scalar tree_4_3_u10_r10_network.content_distribution 	client-21 	34
scalar tree_4_3_u10_r10_network.content_distribution 	client-22 	35
scalar tree_4_3_u10_r10_network.content_distribution 	client-23 	36
scalar tree_4_3_u10_r10_network.content_distribution 	client-24 	37
scalar tree_4_3_u10_r10_network.content_distribution 	client-25 	38
scalar tree_4_3_u10_r10_network.content_distribution 	client-26 	39
scalar tree_4_3_u10_r10_network.content_distribution 	repo-0_card 	100000
scalar tree_4_3_u10_r10_network.content_distribution 	repo-0_price 	0
scalar tree_4_3_u10_r10_network.statistics 	stabilization_time 	1885.9
scalar tree_4_3_u10_r10_network.statistics 	p_hit 	0.23804818823098
scalar tree_4_3_u10_r10_network.statistics 	interests 	24282.875
scalar tree_4_3_u10_r10_network.statistics 	data 	16200.95
scalar tree_4_3_u10_r10_network.statistics 	hdistance 	2.587517253173
scalar tree_4_3_u10_r10_network.statistics 	avg_time 	0.004009279151
scalar tree_4_3_u10_r10_network.statistics 	downloads 	323273
scalar tree_4_3_u10_r10_network.statistics 	total_cost 	0
scalar tree_4_3_u10_r10_network.statistics 	total_replicas 	100000
scalar tree_4_3_u10_r10_network.statistics 	inner_hit 	0.41713041299459
scalar tree_4_3_u10_r10_network.node[0].core_layer 	interests[0] 	191730
scalar tree_4_3_u10_r10_network.node[0].core_layer 	repo_load[0] 	188426
scalar tree_4_3_u10_r10_network.node[0].core_layer 	data[0] 	0
scalar tree_4_3_u10_r10_network.node[0].core_layer 	repo_int[0] 	188426
scalar tree_4_3_u10_r10_network.node[0].content_store 	p_hit[0] 	0.017232566630157
scalar tree_4_3_u10_r10_network.node[0].content_store 	hits[0] 	3304
scalar tree_4_3_u10_r10_network.node[0].content_store 	misses[0] 	188426
scalar tree_4_3_u10_r10_network.node[0].content_store 	decision_yes[0] 	930
scalar tree_4_3_u10_r10_network.node[0].content_store 	decision_no[0] 	187496
scalar tree_4_3_u10_r10_network.node[0].content_store 	decision_ratio[0] 	0.0049356245953319
scalar tree_4_3_u10_r10_network.node[1].core_layer 	interests[1] 	140010
scalar tree_4_3_u10_r10_network.node[1].core_layer 	data[1] 	136577
scalar tree_4_3_u10_r10_network.node[1].content_store 	p_hit[1] 	0.024512534818942
scalar tree_4_3_u10_r10_network.node[1].content_store 	hits[1] 	3432
scalar tree_4_3_u10_r10_network.node[1].content_store 	misses[1] 	136578
scalar tree_4_3_u10_r10_network.node[1].content_store 	decision_yes[1] 	94
scalar tree_4_3_u10_r10_network.node[1].content_store 	decision_no[1] 	136483
scalar tree_4_3_u10_r10_network.node[1].content_store 	decision_ratio[1] 	0.00068825644142132
scalar tree_4_3_u10_r10_network.node[2].core_layer 	interests[2] 	55335
scalar tree_4_3_u10_r10_network.node[2].core_layer 	data[2] 	52260
scalar tree_4_3_u10_r10_network.node[2].content_store 	p_hit[2] 	0.055570615342911
scalar tree_4_3_u10_r10_network.node[2].content_store 	hits[2] 	3075
scalar tree_4_3_u10_r10_network.node[2].content_store 	misses[2] 	52260
scalar tree_4_3_u10_r10_network.node[2].content_store 	decision_yes[2] 	84
scalar tree_4_3_u10_r10_network.node[2].content_store 	decision_no[2] 	52176
scalar tree_4_3_u10_r10_network.node[2].content_store 	decision_ratio[2] 	0.0016073478760046
scalar tree_4_3_u10_r10_network.node[3].core_layer 	interests[3] 	11597
scalar tree_4_3_u10_r10_network.node[3].core_layer 	data[3] 	8580
scalar tree_4_3_u10_r10_network.node[3].content_store 	p_hit[3] 	0.26015348797103
scalar tree_4_3_u10_r10_network.node[3].content_store 	hits[3] 	3017
scalar tree_4_3_u10_r10_network.node[3].content_store 	misses[3] 	8580
scalar tree_4_3_u10_r10_network.node[3].content_store 	decision_yes[3] 	107
scalar tree_4_3_u10_r10_network.node[3].content_store 	decision_no[3] 	8473
scalar tree_4_3_u10_r10_network.node[3].content_store 	decision_ratio[3] 	0.012470862470862
scalar tree_4_3_u10_r10_network.node[4].core_layer 	interests[4] 	41039
scalar tree_4_3_u10_r10_network.node[4].core_layer 	data[4] 	38776
scalar tree_4_3_u10_r10_network.node[4].content_store 	p_hit[4] 	0.055118302102878
scalar tree_4_3_u10_r10_network.node[4].content_store 	hits[4] 	2262
scalar tree_4_3_u10_r10_network.node[4].content_store 	misses[4] 	38777
scalar tree_4_3_u10_r10_network.node[4].content_store 	decision_yes[4] 	74
scalar tree_4_3_u10_r10_network.node[4].content_store 	decision_no[4] 	38702
scalar tree_4_3_u10_r10_network.node[4].content_store 	decision_ratio[4] 	0.0019083969465649
scalar tree_4_3_u10_r10_network.node[5].core_layer 	interests[5] 	27087
scalar tree_4_3_u10_r10_network.node[5].core_layer 	data[5] 	24407
scalar tree_4_3_u10_r10_network.node[5].content_store 	p_hit[5] 	0.098940451138923
scalar tree_4_3_u10_r10_network.node[5].content_store 	hits[5] 	2680
scalar tree_4_3_u10_r10_network.node[5].content_store 	misses[5] 	24407
scalar tree_4_3_u10_r10_network.node[5].content_store 	decision_yes[5] 	95
scalar tree_4_3_u10_r10_network.node[5].content_store 	decision_no[5] 	24312
scalar tree_4_3_u10_r10_network.node[5].content_store 	decision_ratio[5] 	0.0038923259720572
scalar tree_4_3_u10_r10_network.node[6].core_layer 	interests[6] 	11931
scalar tree_4_3_u10_r10_network.node[6].core_layer 	data[6] 	9344
scalar tree_4_3_u10_r10_network.node[6].content_store 	p_hit[6] 	0.21683010644539
scalar tree_4_3_u10_r10_network.node[6].content_store 	hits[6] 	2587
scalar tree_4_3_u10_r10_network.node[6].content_store 	misses[6] 	9344
scalar tree_4_3_u10_r10_network.node[6].content_store 	decision_yes[6] 	179
scalar tree_4_3_u10_r10_network.node[6].content_store 	decision_no[6] 	9165
scalar tree_4_3_u10_r10_network.node[6].content_store 	decision_ratio[6] 	0.019156678082192
scalar tree_4_3_u10_r10_network.node[7].core_layer 	interests[7] 	41753
scalar tree_4_3_u10_r10_network.node[7].core_layer 	data[7] 	38939
scalar tree_4_3_u10_r10_network.node[7].content_store 	p_hit[7] 	0.067372404378129
scalar tree_4_3_u10_r10_network.node[7].content_store 	hits[7] 	2813
scalar tree_4_3_u10_r10_network.node[7].content_store 	misses[7] 	38940
scalar tree_4_3_u10_r10_network.node[7].content_store 	decision_yes[7] 	82
scalar tree_4_3_u10_r10_network.node[7].content_store 	decision_no[7] 	38857
scalar tree_4_3_u10_r10_network.node[7].content_store 	decision_ratio[7] 	0.0021058578802743
scalar tree_4_3_u10_r10_network.node[8].core_layer 	interests[8] 	25957
scalar tree_4_3_u10_r10_network.node[8].core_layer 	data[8] 	23624
scalar tree_4_3_u10_r10_network.node[8].content_store 	p_hit[8] 	0.089917941210463
scalar tree_4_3_u10_r10_network.node[8].content_store 	hits[8] 	2334
scalar tree_4_3_u10_r10_network.node[8].content_store 	misses[8] 	23623
scalar tree_4_3_u10_r10_network.node[8].content_store 	decision_yes[8] 	62
scalar tree_4_3_u10_r10_network.node[8].content_store 	decision_no[8] 	23562
scalar tree_4_3_u10_r10_network.node[8].content_store 	decision_ratio[8] 	0.0026244497121571
scalar tree_4_3_u10_r10_network.node[9].core_layer 	interests[9] 	12084
scalar tree_4_3_u10_r10_network.node[9].core_layer 	data[9] 	9522
scalar tree_4_3_u10_r10_network.node[9].content_store 	p_hit[9] 	0.21201588877855
scalar tree_4_3_u10_r10_network.node[9].content_store 	hits[9] 	2562
scalar tree_4_3_u10_r10_network.node[9].content_store 	misses[9] 	9522
scalar tree_4_3_u10_r10_network.node[9].content_store 	decision_yes[9] 	185
scalar tree_4_3_u10_r10_network.node[9].content_store 	decision_no[9] 	9337
scalar tree_4_3_u10_r10_network.node[9].content_store 	decision_ratio[9] 	0.019428691451376
scalar tree_4_3_u10_r10_network.node[10].core_layer 	interests[10] 	41568
scalar tree_4_3_u10_r10_network.node[10].core_layer 	data[10] 	38994
scalar tree_4_3_u10_r10_network.node[10].content_store 	p_hit[10] 	0.061922632794457
scalar tree_4_3_u10_r10_network.node[10].content_store 	hits[10] 	2574
scalar tree_4_3_u10_r10_network.node[10].content_store 	misses[10] 	38994
scalar tree_4_3_u10_r10_network.node[10].content_store 	decision_yes[10] 	94
scalar tree_4_3_u10_r10_network.node[10].content_store 	decision_no[10] 	38900
scalar tree_4_3_u10_r10_network.node[10].content_store 	decision_ratio[10] 	0.0024106272759912
scalar tree_4_3_u10_r10_network.node[11].core_layer 	interests[11] 	27038
scalar tree_4_3_u10_r10_network.node[11].core_layer 	data[11] 	24703
scalar tree_4_3_u10_r10_network.node[11].content_store 	p_hit[11] 	0.086359937865227
scalar tree_4_3_u10_r10_network.node[11].content_store 	hits[11] 	2335
scalar tree_4_3_u10_r10_network.node[11].content_store 	misses[11] 	24703
scalar tree_4_3_u10_r10_network.node[11].content_store 	decision_yes[11] 	103
scalar tree_4_3_u10_r10_network.node[11].content_store 	decision_no[11] 	24600
scalar tree_4_3_u10_r10_network.node[11].content_store 	decision_ratio[11] 	0.0041695340646885
scalar tree_4_3_u10_r10_network.node[12].core_layer 	interests[12] 	10941
scalar tree_4_3_u10_r10_network.node[12].core_layer 	data[12] 	8601
scalar tree_4_3_u10_r10_network.node[12].content_store 	p_hit[12] 	0.21387441732931
scalar tree_4_3_u10_r10_network.node[12].content_store 	hits[12] 	2340
scalar tree_4_3_u10_r10_network.node[12].content_store 	misses[12] 	8601
scalar tree_4_3_u10_r10_network.node[12].content_store 	decision_yes[12] 	71
scalar tree_4_3_u10_r10_network.node[12].content_store 	decision_no[12] 	8530
scalar tree_4_3_u10_r10_network.node[12].content_store 	decision_ratio[12] 	0.0082548540867341
scalar tree_4_3_u10_r10_network.node[13].core_layer 	interests[13] 	12161
scalar tree_4_3_u10_r10_network.node[13].core_layer 	data[13] 	8693
scalar tree_4_3_u10_r10_network.node[13].content_store 	p_hit[13] 	0.2851739166187
scalar tree_4_3_u10_r10_network.node[13].content_store 	hits[13] 	3468
scalar tree_4_3_u10_r10_network.node[13].content_store 	misses[13] 	8693
scalar tree_4_3_u10_r10_network.node[13].content_store 	decision_yes[13] 	26
scalar tree_4_3_u10_r10_network.node[13].content_store 	decision_no[13] 	8667
scalar tree_4_3_u10_r10_network.node[13].content_store 	decision_ratio[13] 	0.0029909122282296
scalar tree_4_3_u10_r10_network.node[14].core_layer 	interests[14] 	12456
scalar tree_4_3_u10_r10_network.node[14].core_layer 	data[14] 	8707
scalar tree_4_3_u10_r10_network.node[14].content_store 	p_hit[14] 	0.30097944765575
scalar tree_4_3_u10_r10_network.node[14].content_store 	hits[14] 	3749
scalar tree_4_3_u10_r10_network.node[14].content_store 	misses[14] 	8707
scalar tree_4_3_u10_r10_network.node[14].content_store 	decision_yes[14] 	41
scalar tree_4_3_u10_r10_network.node[14].content_store 	decision_no[14] 	8666
scalar tree_4_3_u10_r10_network.node[14].content_store 	decision_ratio[14] 	0.0047088549442977
scalar tree_4_3_u10_r10_network.node[15].core_layer 	interests[15] 	12772
scalar tree_4_3_u10_r10_network.node[15].core_layer 	data[15] 	8872
scalar tree_4_3_u10_r10_network.node[15].content_store 	p_hit[15] 	0.30535546507986
scalar tree_4_3_u10_r10_network.node[15].content_store 	hits[15] 	3900
scalar tree_4_3_u10_r10_network.node[15].content_store 	misses[15] 	8872
scalar tree_4_3_u10_r10_network.node[15].content_store 	decision_yes[15] 	42
scalar tree_4_3_u10_r10_network.node[15].content_store 	decision_no[15] 	8830
scalar tree_4_3_u10_r10_network.node[15].content_store 	decision_ratio[15] 	0.0047339945897205
scalar tree_4_3_u10_r10_network.node[16].core_layer 	interests[16] 	12474
scalar tree_4_3_u10_r10_network.node[16].core_layer 	data[16] 	8760
scalar tree_4_3_u10_r10_network.node[16].content_store 	p_hit[16] 	0.2977392977393
scalar tree_4_3_u10_r10_network.node[16].content_store 	hits[16] 	3714
scalar tree_4_3_u10_r10_network.node[16].content_store 	misses[16] 	8760
scalar tree_4_3_u10_r10_network.node[16].content_store 	decision_yes[16] 	40
scalar tree_4_3_u10_r10_network.node[16].content_store 	decision_no[16] 	8720
scalar tree_4_3_u10_r10_network.node[16].content_store 	decision_ratio[16] 	0.0045662100456621
scalar tree_4_3_u10_r10_network.node[17].core_layer 	interests[17] 	11981
scalar tree_4_3_u10_r10_network.node[17].core_layer 	data[17] 	8467
scalar tree_4_3_u10_r10_network.node[17].content_store 	p_hit[17] 	0.2932977213922
scalar tree_4_3_u10_r10_network.node[17].content_store 	hits[17] 	3514
scalar tree_4_3_u10_r10_network.node[17].content_store 	misses[17] 	8467
scalar tree_4_3_u10_r10_network.node[17].content_store 	decision_yes[17] 	22
scalar tree_4_3_u10_r10_network.node[17].content_store 	decision_no[17] 	8445
scalar tree_4_3_u10_r10_network.node[17].content_store 	decision_ratio[17] 	0.0025983229006732
scalar tree_4_3_u10_r10_network.node[18].core_layer 	interests[18] 	12500
scalar tree_4_3_u10_r10_network.node[18].core_layer 	data[18] 	8680
scalar tree_4_3_u10_r10_network.node[18].content_store 	p_hit[18] 	0.3056
scalar tree_4_3_u10_r10_network.node[18].content_store 	hits[18] 	3820
scalar tree_4_3_u10_r10_network.node[18].content_store 	misses[18] 	8680
scalar tree_4_3_u10_r10_network.node[18].content_store 	decision_yes[18] 	45
scalar tree_4_3_u10_r10_network.node[18].content_store 	decision_no[18] 	8635
scalar tree_4_3_u10_r10_network.node[18].content_store 	decision_ratio[18] 	0.005184331797235
scalar tree_4_3_u10_r10_network.node[19].core_layer 	interests[19] 	12478
scalar tree_4_3_u10_r10_network.node[19].core_layer 	data[19] 	8624
scalar tree_4_3_u10_r10_network.node[19].content_store 	p_hit[19] 	0.30878345888764
scalar tree_4_3_u10_r10_network.node[19].content_store 	hits[19] 	3853
scalar tree_4_3_u10_r10_network.node[19].content_store 	misses[19] 	8625
scalar tree_4_3_u10_r10_network.node[19].content_store 	decision_yes[19] 	35
scalar tree_4_3_u10_r10_network.node[19].content_store 	decision_no[19] 	8589
scalar tree_4_3_u10_r10_network.node[19].content_store 	decision_ratio[19] 	0.0040584415584416
scalar tree_4_3_u10_r10_network.node[20].core_layer 	interests[20] 	12591
scalar tree_4_3_u10_r10_network.node[20].core_layer 	data[20] 	8747
scalar tree_4_3_u10_r10_network.node[20].content_store 	p_hit[20] 	0.30529743467556
scalar tree_4_3_u10_r10_network.node[20].content_store 	hits[20] 	3844
scalar tree_4_3_u10_r10_network.node[20].content_store 	misses[20] 	8747
scalar tree_4_3_u10_r10_network.node[20].content_store 	decision_yes[20] 	29
scalar tree_4_3_u10_r10_network.node[20].content_store 	decision_no[20] 	8718
scalar tree_4_3_u10_r10_network.node[20].content_store 	decision_ratio[20] 	0.0033154224305476
scalar tree_4_3_u10_r10_network.node[21].core_layer 	interests[21] 	12040
scalar tree_4_3_u10_r10_network.node[21].core_layer 	data[21] 	8489
scalar tree_4_3_u10_r10_network.node[21].content_store 	p_hit[21] 	0.29493355481728
scalar tree_4_3_u10_r10_network.node[21].content_store 	hits[21] 	3551
scalar tree_4_3_u10_r10_network.node[21].content_store 	misses[21] 	8489
scalar tree_4_3_u10_r10_network.node[21].content_store 	decision_yes[21] 	20
scalar tree_4_3_u10_r10_network.node[21].content_store 	decision_no[21] 	8469
scalar tree_4_3_u10_r10_network.node[21].content_store 	decision_ratio[21] 	0.0023559901048416
scalar tree_4_3_u10_r10_network.node[22].core_layer 	interests[22] 	12132
scalar tree_4_3_u10_r10_network.node[22].core_layer 	data[22] 	8574
scalar tree_4_3_u10_r10_network.node[22].content_store 	p_hit[22] 	0.29327398615232
scalar tree_4_3_u10_r10_network.node[22].content_store 	hits[22] 	3558
scalar tree_4_3_u10_r10_network.node[22].content_store 	misses[22] 	8574
scalar tree_4_3_u10_r10_network.node[22].content_store 	decision_yes[22] 	25
scalar tree_4_3_u10_r10_network.node[22].content_store 	decision_no[22] 	8549
scalar tree_4_3_u10_r10_network.node[22].content_store 	decision_ratio[22] 	0.0029157919290879
scalar tree_4_3_u10_r10_network.node[23].core_layer 	interests[23] 	12319
scalar tree_4_3_u10_r10_network.node[23].core_layer 	data[23] 	8671
scalar tree_4_3_u10_r10_network.node[23].content_store 	p_hit[23] 	0.29604675704197
scalar tree_4_3_u10_r10_network.node[23].content_store 	hits[23] 	3647
scalar tree_4_3_u10_r10_network.node[23].content_store 	misses[23] 	8672
scalar tree_4_3_u10_r10_network.node[23].content_store 	decision_yes[23] 	48
scalar tree_4_3_u10_r10_network.node[23].content_store 	decision_no[23] 	8623
scalar tree_4_3_u10_r10_network.node[23].content_store 	decision_ratio[23] 	0.0055356936916157
scalar tree_4_3_u10_r10_network.node[24].core_layer 	interests[24] 	12508
scalar tree_4_3_u10_r10_network.node[24].core_layer 	data[24] 	8675
scalar tree_4_3_u10_r10_network.node[24].content_store 	p_hit[24] 	0.30644387591941
scalar tree_4_3_u10_r10_network.node[24].content_store 	hits[24] 	3833
scalar tree_4_3_u10_r10_network.node[24].content_store 	misses[24] 	8675
scalar tree_4_3_u10_r10_network.node[24].content_store 	decision_yes[24] 	34
scalar tree_4_3_u10_r10_network.node[24].content_store 	decision_no[24] 	8641
scalar tree_4_3_u10_r10_network.node[24].content_store 	decision_ratio[24] 	0.0039193083573487
scalar tree_4_3_u10_r10_network.node[25].core_layer 	interests[25] 	12433
scalar tree_4_3_u10_r10_network.node[25].core_layer 	data[25] 	8696
scalar tree_4_3_u10_r10_network.node[25].content_store 	p_hit[25] 	0.3004906297756
scalar tree_4_3_u10_r10_network.node[25].content_store 	hits[25] 	3736
scalar tree_4_3_u10_r10_network.node[25].content_store 	misses[25] 	8697
scalar tree_4_3_u10_r10_network.node[25].content_store 	decision_yes[25] 	42
scalar tree_4_3_u10_r10_network.node[25].content_store 	decision_no[25] 	8654
scalar tree_4_3_u10_r10_network.node[25].content_store 	decision_ratio[25] 	0.0048298068077277
scalar tree_4_3_u10_r10_network.node[26].core_layer 	interests[26] 	12152
scalar tree_4_3_u10_r10_network.node[26].core_layer 	data[26] 	8589
scalar tree_4_3_u10_r10_network.node[26].content_store 	p_hit[26] 	0.29328505595787
scalar tree_4_3_u10_r10_network.node[26].content_store 	hits[26] 	3564
scalar tree_4_3_u10_r10_network.node[26].content_store 	misses[26] 	8588
scalar tree_4_3_u10_r10_network.node[26].content_store 	decision_yes[26] 	23
scalar tree_4_3_u10_r10_network.node[26].content_store 	decision_no[26] 	8566
scalar tree_4_3_u10_r10_network.node[26].content_store 	decision_ratio[26] 	0.0026778437536384
scalar tree_4_3_u10_r10_network.node[27].core_layer 	interests[27] 	12303
scalar tree_4_3_u10_r10_network.node[27].core_layer 	data[27] 	8601
scalar tree_4_3_u10_r10_network.node[27].content_store 	p_hit[27] 	0.30090221897098
scalar tree_4_3_u10_r10_network.node[27].content_store 	hits[27] 	3702
scalar tree_4_3_u10_r10_network.node[27].content_store 	misses[27] 	8601
scalar tree_4_3_u10_r10_network.node[27].content_store 	decision_yes[27] 	38
scalar tree_4_3_u10_r10_network.node[27].content_store 	decision_no[27] 	8563
scalar tree_4_3_u10_r10_network.node[27].content_store 	decision_ratio[27] 	0.0044180909196605
scalar tree_4_3_u10_r10_network.node[28].core_layer 	interests[28] 	12409
scalar tree_4_3_u10_r10_network.node[28].core_layer 	data[28] 	8601
scalar tree_4_3_u10_r10_network.node[28].content_store 	p_hit[28] 	0.30679345636232
scalar tree_4_3_u10_r10_network.node[28].content_store 	hits[28] 	3807
scalar tree_4_3_u10_r10_network.node[28].content_store 	misses[28] 	8602
scalar tree_4_3_u10_r10_network.node[28].content_store 	decision_yes[28] 	35
scalar tree_4_3_u10_r10_network.node[28].content_store 	decision_no[28] 	8566
scalar tree_4_3_u10_r10_network.node[28].content_store 	decision_ratio[28] 	0.0040692942681084
scalar tree_4_3_u10_r10_network.node[29].core_layer 	interests[29] 	12421
scalar tree_4_3_u10_r10_network.node[29].core_layer 	data[29] 	8672
scalar tree_4_3_u10_r10_network.node[29].content_store 	p_hit[29] 	0.30174704130102
scalar tree_4_3_u10_r10_network.node[29].content_store 	hits[29] 	3748
scalar tree_4_3_u10_r10_network.node[29].content_store 	misses[29] 	8673
scalar tree_4_3_u10_r10_network.node[29].content_store 	decision_yes[29] 	42
scalar tree_4_3_u10_r10_network.node[29].content_store 	decision_no[29] 	8630
scalar tree_4_3_u10_r10_network.node[29].content_store 	decision_ratio[29] 	0.0048431734317343
scalar tree_4_3_u10_r10_network.node[30].core_layer 	interests[30] 	12197
scalar tree_4_3_u10_r10_network.node[30].core_layer 	data[30] 	8681
scalar tree_4_3_u10_r10_network.node[30].content_store 	p_hit[30] 	0.28826760678855
scalar tree_4_3_u10_r10_network.node[30].content_store 	hits[30] 	3516
scalar tree_4_3_u10_r10_network.node[30].content_store 	misses[30] 	8681
scalar tree_4_3_u10_r10_network.node[30].content_store 	decision_yes[30] 	20
scalar tree_4_3_u10_r10_network.node[30].content_store 	decision_no[30] 	8661
scalar tree_4_3_u10_r10_network.node[30].content_store 	decision_ratio[30] 	0.0023038820412395
scalar tree_4_3_u10_r10_network.node[31].core_layer 	interests[31] 	12104
scalar tree_4_3_u10_r10_network.node[31].core_layer 	data[31] 	8527
scalar tree_4_3_u10_r10_network.node[31].content_store 	p_hit[31] 	0.29552214144085
scalar tree_4_3_u10_r10_network.node[31].content_store 	hits[31] 	3577
scalar tree_4_3_u10_r10_network.node[31].content_store 	misses[31] 	8527
scalar tree_4_3_u10_r10_network.node[31].content_store 	decision_yes[31] 	17
scalar tree_4_3_u10_r10_network.node[31].content_store 	decision_no[31] 	8510
scalar tree_4_3_u10_r10_network.node[31].content_store 	decision_ratio[31] 	0.0019936671748563
scalar tree_4_3_u10_r10_network.node[32].core_layer 	interests[32] 	12265
scalar tree_4_3_u10_r10_network.node[32].core_layer 	data[32] 	8587
scalar tree_4_3_u10_r10_network.node[32].content_store 	p_hit[32] 	0.29987770077456
scalar tree_4_3_u10_r10_network.node[32].content_store 	hits[32] 	3678
scalar tree_4_3_u10_r10_network.node[32].content_store 	misses[32] 	8587
scalar tree_4_3_u10_r10_network.node[32].content_store 	decision_yes[32] 	42
scalar tree_4_3_u10_r10_network.node[32].content_store 	decision_no[32] 	8545
scalar tree_4_3_u10_r10_network.node[32].content_store 	decision_ratio[32] 	0.0048911144753697
scalar tree_4_3_u10_r10_network.node[33].core_layer 	interests[33] 	12343
scalar tree_4_3_u10_r10_network.node[33].core_layer 	data[33] 	8592
scalar tree_4_3_u10_r10_network.node[33].content_store 	p_hit[33] 	0.3038969456372
scalar tree_4_3_u10_r10_network.node[33].content_store 	hits[33] 	3751
scalar tree_4_3_u10_r10_network.node[33].content_store 	misses[33] 	8592
scalar tree_4_3_u10_r10_network.node[33].content_store 	decision_yes[33] 	43
scalar tree_4_3_u10_r10_network.node[33].content_store 	decision_no[33] 	8549
scalar tree_4_3_u10_r10_network.node[33].content_store 	decision_ratio[33] 	0.0050046554934823
scalar tree_4_3_u10_r10_network.node[34].core_layer 	interests[34] 	12402
scalar tree_4_3_u10_r10_network.node[34].core_layer 	data[34] 	8675
scalar tree_4_3_u10_r10_network.node[34].content_store 	p_hit[34] 	0.30051604579906
scalar tree_4_3_u10_r10_network.node[34].content_store 	hits[34] 	3727
scalar tree_4_3_u10_r10_network.node[34].content_store 	misses[34] 	8675
scalar tree_4_3_u10_r10_network.node[34].content_store 	decision_yes[34] 	34
scalar tree_4_3_u10_r10_network.node[34].content_store 	decision_no[34] 	8641
scalar tree_4_3_u10_r10_network.node[34].content_store 	decision_ratio[34] 	0.0039193083573487
scalar tree_4_3_u10_r10_network.node[35].core_layer 	interests[35] 	12313
scalar tree_4_3_u10_r10_network.node[35].core_layer 	data[35] 	8692
scalar tree_4_3_u10_r10_network.node[35].content_store 	p_hit[35] 	0.29407942824657
scalar tree_4_3_u10_r10_network.node[35].content_store 	hits[35] 	3621
scalar tree_4_3_u10_r10_network.node[35].content_store 	misses[35] 	8692
scalar tree_4_3_u10_r10_network.node[35].content_store 	decision_yes[35] 	27
scalar tree_4_3_u10_r10_network.node[35].content_store 	decision_no[35] 	8665
scalar tree_4_3_u10_r10_network.node[35].content_store 	decision_ratio[35] 	0.0031063046479521
scalar tree_4_3_u10_r10_network.node[36].core_layer 	interests[36] 	12488
scalar tree_4_3_u10_r10_network.node[36].core_layer 	data[36] 	8695
scalar tree_4_3_u10_r10_network.node[36].content_store 	p_hit[36] 	0.30373158231903
scalar tree_4_3_u10_r10_network.node[36].content_store 	hits[36] 	3793
scalar tree_4_3_u10_r10_network.node[36].content_store 	misses[36] 	8695
scalar tree_4_3_u10_r10_network.node[36].content_store 	decision_yes[36] 	42
scalar tree_4_3_u10_r10_network.node[36].content_store 	decision_no[36] 	8653
scalar tree_4_3_u10_r10_network.node[36].content_store 	decision_ratio[36] 	0.0048303622771708
scalar tree_4_3_u10_r10_network.node[37].core_layer 	interests[37] 	12365
scalar tree_4_3_u10_r10_network.node[37].core_layer 	data[37] 	8714
scalar tree_4_3_u10_r10_network.node[37].content_store 	p_hit[37] 	0.29526890416498
scalar tree_4_3_u10_r10_network.node[37].content_store 	hits[37] 	3651
scalar tree_4_3_u10_r10_network.node[37].content_store 	misses[37] 	8714
scalar tree_4_3_u10_r10_network.node[37].content_store 	decision_yes[37] 	39
scalar tree_4_3_u10_r10_network.node[37].content_store 	decision_no[37] 	8675
scalar tree_4_3_u10_r10_network.node[37].content_store 	decision_ratio[37] 	0.0044755565756254
scalar tree_4_3_u10_r10_network.node[38].core_layer 	interests[38] 	12590
scalar tree_4_3_u10_r10_network.node[38].core_layer 	data[38] 	8820
scalar tree_4_3_u10_r10_network.node[38].content_store 	p_hit[38] 	0.29944400317712
scalar tree_4_3_u10_r10_network.node[38].content_store 	hits[38] 	3770
scalar tree_4_3_u10_r10_network.node[38].content_store 	misses[38] 	8820
scalar tree_4_3_u10_r10_network.node[38].content_store 	decision_yes[38] 	47
scalar tree_4_3_u10_r10_network.node[38].content_store 	decision_no[38] 	8773
scalar tree_4_3_u10_r10_network.node[38].content_store 	decision_ratio[38] 	0.005328798185941
scalar tree_4_3_u10_r10_network.node[39].core_layer 	interests[39] 	12048
scalar tree_4_3_u10_r10_network.node[39].core_layer 	data[39] 	8610
scalar tree_4_3_u10_r10_network.node[39].content_store 	p_hit[39] 	0.28535856573705
scalar tree_4_3_u10_r10_network.node[39].content_store 	hits[39] 	3438
scalar tree_4_3_u10_r10_network.node[39].content_store 	misses[39] 	8610
scalar tree_4_3_u10_r10_network.node[39].content_store 	decision_yes[39] 	30
scalar tree_4_3_u10_r10_network.node[39].content_store 	decision_no[39] 	8580
scalar tree_4_3_u10_r10_network.node[39].content_store 	decision_ratio[39] 	0.0034843205574913
scalar tree_4_3_u10_r10_network.client[13] 	hdistance[13] 	2.6623594562846
scalar tree_4_3_u10_r10_network.client[13] 	downloads[13] 	11918
scalar tree_4_3_u10_r10_network.client[13] 	avg_time[13] 	0.004136047966
scalar tree_4_3_u10_r10_network.client[14] 	hdistance[14] 	2.5773610180844
scalar tree_4_3_u10_r10_network.client[14] 	downloads[14] 	11944
scalar tree_4_3_u10_r10_network.client[14] 	avg_time[14] 	0.004004578463
scalar tree_4_3_u10_r10_network.client[15] 	hdistance[15] 	2.573924401992
scalar tree_4_3_u10_r10_network.client[15] 	downloads[15] 	12249
scalar tree_4_3_u10_r10_network.client[15] 	avg_time[15] 	0.003986281507
scalar tree_4_3_u10_r10_network.client[16] 	hdistance[16] 	2.580892782645
scalar tree_4_3_u10_r10_network.client[16] 	downloads[16] 	11985
scalar tree_4_3_u10_r10_network.client[16] 	avg_time[16] 	0.004001665756
scalar tree_4_3_u10_r10_network.client[17] 	hdistance[17] 	2.5954846375828
scalar tree_4_3_u10_r10_network.client[17] 	downloads[17] 	11782
scalar tree_4_3_u10_r10_network.client[17] 	avg_time[17] 	0.004040227923
scalar tree_4_3_u10_r10_network.client[18] 	hdistance[18] 	2.5513567504578
scalar tree_4_3_u10_r10_network.client[18] 	downloads[18] 	12014
scalar tree_4_3_u10_r10_network.client[18] 	avg_time[18] 	0.003957879479
scalar tree_4_3_u10_r10_network.client[19] 	hdistance[19] 	2.559265442404
scalar tree_4_3_u10_r10_network.client[19] 	downloads[19] 	11980
scalar tree_4_3_u10_r10_network.client[19] 	avg_time[19] 	0.003963412919
scalar tree_4_3_u10_r10_network.client[20] 	hdistance[20] 	2.581776087316
scalar tree_4_3_u10_r10_network.client[20] 	downloads[20] 	12094
scalar tree_4_3_u10_r10_network.client[20] 	avg_time[20] 	0.003988255629
scalar tree_4_3_u10_r10_network.client[21] 	hdistance[21] 	2.596550557998
scalar tree_4_3_u10_r10_network.client[21] 	downloads[21] 	11828
scalar tree_4_3_u10_r10_network.client[21] 	avg_time[21] 	0.004031955123
scalar tree_4_3_u10_r10_network.client[22] 	hdistance[22] 	2.5916282963583
scalar tree_4_3_u10_r10_network.client[22] 	downloads[22] 	11945
scalar tree_4_3_u10_r10_network.client[22] 	avg_time[22] 	0.004034320973
scalar tree_4_3_u10_r10_network.client[23] 	hdistance[23] 	2.5837769328264
scalar tree_4_3_u10_r10_network.client[23] 	downloads[23] 	11835
scalar tree_4_3_u10_r10_network.client[23] 	avg_time[23] 	0.004013328943
scalar tree_4_3_u10_r10_network.client[24] 	hdistance[24] 	2.5664131070802
scalar tree_4_3_u10_r10_network.client[24] 	downloads[24] 	11963
scalar tree_4_3_u10_r10_network.client[24] 	avg_time[24] 	0.003974585326
scalar tree_4_3_u10_r10_network.client[25] 	hdistance[25] 	2.5642714238079
scalar tree_4_3_u10_r10_network.client[25] 	downloads[25] 	11996
scalar tree_4_3_u10_r10_network.client[25] 	avg_time[25] 	0.003972606671
scalar tree_4_3_u10_r10_network.client[26] 	hdistance[26] 	2.6286642238508
scalar tree_4_3_u10_r10_network.client[26] 	downloads[26] 	12008
scalar tree_4_3_u10_r10_network.client[26] 	avg_time[26] 	0.004068784507
scalar tree_4_3_u10_r10_network.client[27] 	hdistance[27] 	2.5821860308932
scalar tree_4_3_u10_r10_network.client[27] 	downloads[27] 	11912
scalar tree_4_3_u10_r10_network.client[27] 	avg_time[27] 	0.003984718311
scalar tree_4_3_u10_r10_network.client[28] 	hdistance[28] 	2.5540313078606
scalar tree_4_3_u10_r10_network.client[28] 	downloads[28] 	11882
scalar tree_4_3_u10_r10_network.client[28] 	avg_time[28] 	0.003956738346
scalar tree_4_3_u10_r10_network.client[29] 	hdistance[29] 	2.5794228356336
scalar tree_4_3_u10_r10_network.client[29] 	downloads[29] 	11955
scalar tree_4_3_u10_r10_network.client[29] 	avg_time[29] 	0.003989457474
scalar tree_4_3_u10_r10_network.client[30] 	hdistance[30] 	2.6277634103612
scalar tree_4_3_u10_r10_network.client[30] 	downloads[30] 	11987
scalar tree_4_3_u10_r10_network.client[30] 	avg_time[30] 	0.00407874899
scalar tree_4_3_u10_r10_network.client[31] 	hdistance[31] 	2.6099136123459
scalar tree_4_3_u10_r10_network.client[31] 	downloads[31] 	11923
scalar tree_4_3_u10_r10_network.client[31] 	avg_time[31] 	0.004046965034
scalar tree_4_3_u10_r10_network.client[32] 	hdistance[32] 	2.5619472753306
scalar tree_4_3_u10_r10_network.client[32] 	downloads[32] 	11873
scalar tree_4_3_u10_r10_network.client[32] 	avg_time[32] 	0.003965801782
scalar tree_4_3_u10_r10_network.client[33] 	hdistance[33] 	2.5368702035369
scalar tree_4_3_u10_r10_network.client[33] 	downloads[33] 	11988
scalar tree_4_3_u10_r10_network.client[33] 	avg_time[33] 	0.003932262615
scalar tree_4_3_u10_r10_network.client[34] 	hdistance[34] 	2.5707476166583
scalar tree_4_3_u10_r10_network.client[34] 	downloads[34] 	11958
scalar tree_4_3_u10_r10_network.client[34] 	avg_time[34] 	0.003983439074
scalar tree_4_3_u10_r10_network.client[35] 	hdistance[35] 	2.6044806852813
scalar tree_4_3_u10_r10_network.client[35] 	downloads[35] 	12141
scalar tree_4_3_u10_r10_network.client[35] 	avg_time[35] 	0.004037390914
scalar tree_4_3_u10_r10_network.client[36] 	hdistance[36] 	2.5732009925558
scalar tree_4_3_u10_r10_network.client[36] 	downloads[36] 	12090
scalar tree_4_3_u10_r10_network.client[36] 	avg_time[36] 	0.003975183111
scalar tree_4_3_u10_r10_network.client[37] 	hdistance[37] 	2.5994810412656
scalar tree_4_3_u10_r10_network.client[37] 	downloads[37] 	11947
scalar tree_4_3_u10_r10_network.client[37] 	avg_time[37] 	0.00402109016
scalar tree_4_3_u10_r10_network.client[38] 	hdistance[38] 	2.5862950441164
scalar tree_4_3_u10_r10_network.client[38] 	downloads[38] 	12127
scalar tree_4_3_u10_r10_network.client[38] 	avg_time[38] 	0.004002377722
scalar tree_4_3_u10_r10_network.client[39] 	hdistance[39] 	2.6629006611432
scalar tree_4_3_u10_r10_network.client[39] 	downloads[39] 	11949
scalar tree_4_3_u10_r10_network.client[39] 	avg_time[39] 	0.004102432369
