version 2
run General-134-20160819-09:03:19-13837
attr a 0.9
attr cd fix0.1
attr configname General
attr cr lru
attr datetime 20160819-09:03:19
attr experiment General
attr fsize 1
attr inifile hw5115/scenario_A/NRR-FIX0.1.ini
attr iterationvars "$name=tree_4_3, $un=06, $rep=15, $cd=fix0.1, $cr=lru, $fsize=1, $a=0.9, $sl=nrr, $ttl=1000, $variance=0.05"
attr iterationvars2 "$name=tree_4_3, $un=06, $rep=15, $cd=fix0.1, $cr=lru, $fsize=1, $a=0.9, $sl=nrr, $ttl=1000, $variance=0.05, $repetition=0"
attr measurement "$name=tree_4_3, $un=06, $rep=15, $cd=fix0.1, $cr=lru, $fsize=1, $a=0.9, $sl=nrr, $ttl=1000, $variance=0.05"
attr name tree_4_3
attr network networks.${name}_u${un}_r${rep}_network
attr processid 13837
attr rep 15
attr repetition 0
attr replication #0
attr resultdir results
attr runnumber 134
attr seedset 15
attr sl nrr
attr ttl 1000
attr un 06
attr variance 0.05

scalar . 	a 	0.9
scalar . 	fsize 	1
scalar . 	rep 	15
scalar . 	ttl 	1000
scalar . 	un 	06
scalar . 	variance 	0.05
scalar tree_4_3_u06_r15_network.content_distribution 	repo-0 	0
scalar tree_4_3_u06_r15_network.content_distribution 	client-0 	13
scalar tree_4_3_u06_r15_network.content_distribution 	client-1 	14
scalar tree_4_3_u06_r15_network.content_distribution 	client-2 	15
scalar tree_4_3_u06_r15_network.content_distribution 	client-3 	16
scalar tree_4_3_u06_r15_network.content_distribution 	client-4 	17
scalar tree_4_3_u06_r15_network.content_distribution 	client-5 	18
scalar tree_4_3_u06_r15_network.content_distribution 	client-6 	19
scalar tree_4_3_u06_r15_network.content_distribution 	client-7 	20
scalar tree_4_3_u06_r15_network.content_distribution 	client-8 	21
scalar tree_4_3_u06_r15_network.content_distribution 	client-9 	22
scalar tree_4_3_u06_r15_network.content_distribution 	client-10 	23
scalar tree_4_3_u06_r15_network.content_distribution 	client-11 	24
scalar tree_4_3_u06_r15_network.content_distribution 	client-12 	25
scalar tree_4_3_u06_r15_network.content_distribution 	client-13 	26
scalar tree_4_3_u06_r15_network.content_distribution 	client-14 	27
scalar tree_4_3_u06_r15_network.content_distribution 	client-15 	28
scalar tree_4_3_u06_r15_network.content_distribution 	client-16 	29
scalar tree_4_3_u06_r15_network.content_distribution 	client-17 	30
scalar tree_4_3_u06_r15_network.content_distribution 	client-18 	31
scalar tree_4_3_u06_r15_network.content_distribution 	client-19 	32
scalar tree_4_3_u06_r15_network.content_distribution 	client-20 	33
scalar tree_4_3_u06_r15_network.content_distribution 	client-21 	34
scalar tree_4_3_u06_r15_network.content_distribution 	client-22 	35
scalar tree_4_3_u06_r15_network.content_distribution 	client-23 	36
scalar tree_4_3_u06_r15_network.content_distribution 	client-24 	37
scalar tree_4_3_u06_r15_network.content_distribution 	client-25 	38
scalar tree_4_3_u06_r15_network.content_distribution 	client-26 	39
scalar tree_4_3_u06_r15_network.content_distribution 	repo-0_card 	100000
scalar tree_4_3_u06_r15_network.content_distribution 	repo-0_price 	0
scalar tree_4_3_u06_r15_network.statistics 	stabilization_time 	790.5
scalar tree_4_3_u06_r15_network.statistics 	p_hit 	0.22417653873921
scalar tree_4_3_u06_r15_network.statistics 	interests 	26347.5
scalar tree_4_3_u06_r15_network.statistics 	data 	18265.65
scalar tree_4_3_u06_r15_network.statistics 	hdistance 	2.8244923128827
scalar tree_4_3_u06_r15_network.statistics 	avg_time 	0.004520553489
scalar tree_4_3_u06_r15_network.statistics 	downloads 	323265
scalar tree_4_3_u06_r15_network.statistics 	total_cost 	0
scalar tree_4_3_u06_r15_network.statistics 	total_replicas 	100000
scalar tree_4_3_u06_r15_network.statistics 	inner_hit 	0.43585293799205
scalar tree_4_3_u06_r15_network.node[0].core_layer 	interests[0] 	183418
scalar tree_4_3_u06_r15_network.node[0].core_layer 	repo_load[0] 	182369
scalar tree_4_3_u06_r15_network.node[0].core_layer 	data[0] 	0
scalar tree_4_3_u06_r15_network.node[0].core_layer 	repo_int[0] 	182369
scalar tree_4_3_u06_r15_network.node[0].content_store 	p_hit[0] 	0.0057191769619121
scalar tree_4_3_u06_r15_network.node[0].content_store 	hits[0] 	1049
scalar tree_4_3_u06_r15_network.node[0].content_store 	misses[0] 	182369
scalar tree_4_3_u06_r15_network.node[0].content_store 	decision_yes[0] 	18331
scalar tree_4_3_u06_r15_network.node[0].content_store 	decision_no[0] 	164038
scalar tree_4_3_u06_r15_network.node[0].content_store 	decision_ratio[0] 	0.10051598681794
scalar tree_4_3_u06_r15_network.node[1].core_layer 	interests[1] 	129292
scalar tree_4_3_u06_r15_network.node[1].core_layer 	data[1] 	128064
scalar tree_4_3_u06_r15_network.node[1].content_store 	p_hit[1] 	0.0094901463354268
scalar tree_4_3_u06_r15_network.node[1].content_store 	hits[1] 	1227
scalar tree_4_3_u06_r15_network.node[1].content_store 	misses[1] 	128065
scalar tree_4_3_u06_r15_network.node[1].content_store 	decision_yes[1] 	12875
scalar tree_4_3_u06_r15_network.node[1].content_store 	decision_no[1] 	115188
scalar tree_4_3_u06_r15_network.node[1].content_store 	decision_ratio[1] 	0.1005364547137
scalar tree_4_3_u06_r15_network.node[2].core_layer 	interests[2] 	41548
scalar tree_4_3_u06_r15_network.node[2].core_layer 	data[2] 	40287
scalar tree_4_3_u06_r15_network.node[2].content_store 	p_hit[2] 	0.030326369500337
scalar tree_4_3_u06_r15_network.node[2].content_store 	hits[2] 	1260
scalar tree_4_3_u06_r15_network.node[2].content_store 	misses[2] 	40288
scalar tree_4_3_u06_r15_network.node[2].content_store 	decision_yes[2] 	4015
scalar tree_4_3_u06_r15_network.node[2].content_store 	decision_no[2] 	36272
scalar tree_4_3_u06_r15_network.node[2].content_store 	decision_ratio[2] 	0.099659939930995
scalar tree_4_3_u06_r15_network.node[3].core_layer 	interests[3] 	48297
scalar tree_4_3_u06_r15_network.node[3].core_layer 	data[3] 	45989
scalar tree_4_3_u06_r15_network.node[3].content_store 	p_hit[3] 	0.047787647265876
scalar tree_4_3_u06_r15_network.node[3].content_store 	hits[3] 	2308
scalar tree_4_3_u06_r15_network.node[3].content_store 	misses[3] 	45989
scalar tree_4_3_u06_r15_network.node[3].content_store 	decision_yes[3] 	4516
scalar tree_4_3_u06_r15_network.node[3].content_store 	decision_no[3] 	41473
scalar tree_4_3_u06_r15_network.node[3].content_store 	decision_ratio[3] 	0.098197395029246
scalar tree_4_3_u06_r15_network.node[4].core_layer 	interests[4] 	47711
scalar tree_4_3_u06_r15_network.node[4].core_layer 	data[4] 	45455
scalar tree_4_3_u06_r15_network.node[4].content_store 	p_hit[4] 	0.047263733730167
scalar tree_4_3_u06_r15_network.node[4].content_store 	hits[4] 	2255
scalar tree_4_3_u06_r15_network.node[4].content_store 	misses[4] 	45456
scalar tree_4_3_u06_r15_network.node[4].content_store 	decision_yes[4] 	4610
scalar tree_4_3_u06_r15_network.node[4].content_store 	decision_no[4] 	40845
scalar tree_4_3_u06_r15_network.node[4].content_store 	decision_ratio[4] 	0.10141898581014
scalar tree_4_3_u06_r15_network.node[5].core_layer 	interests[5] 	22727
scalar tree_4_3_u06_r15_network.node[5].core_layer 	data[5] 	19404
scalar tree_4_3_u06_r15_network.node[5].content_store 	p_hit[5] 	0.14621375456505
scalar tree_4_3_u06_r15_network.node[5].content_store 	hits[5] 	3323
scalar tree_4_3_u06_r15_network.node[5].content_store 	misses[5] 	19404
scalar tree_4_3_u06_r15_network.node[5].content_store 	decision_yes[5] 	1962
scalar tree_4_3_u06_r15_network.node[5].content_store 	decision_no[5] 	17441
scalar tree_4_3_u06_r15_network.node[5].content_store 	decision_ratio[5] 	0.10111838375509
scalar tree_4_3_u06_r15_network.node[6].core_layer 	interests[6] 	26352
scalar tree_4_3_u06_r15_network.node[6].core_layer 	data[6] 	21967
scalar tree_4_3_u06_r15_network.node[6].content_store 	p_hit[6] 	0.16640103217972
scalar tree_4_3_u06_r15_network.node[6].content_store 	hits[6] 	4385
scalar tree_4_3_u06_r15_network.node[6].content_store 	misses[6] 	21967
scalar tree_4_3_u06_r15_network.node[6].content_store 	decision_yes[6] 	2268
scalar tree_4_3_u06_r15_network.node[6].content_store 	decision_no[6] 	19699
scalar tree_4_3_u06_r15_network.node[6].content_store 	decision_ratio[6] 	0.10324577775755
scalar tree_4_3_u06_r15_network.node[7].core_layer 	interests[7] 	40115
scalar tree_4_3_u06_r15_network.node[7].core_layer 	data[7] 	37241
scalar tree_4_3_u06_r15_network.node[7].content_store 	p_hit[7] 	0.071594166770535
scalar tree_4_3_u06_r15_network.node[7].content_store 	hits[7] 	2872
scalar tree_4_3_u06_r15_network.node[7].content_store 	misses[7] 	37243
scalar tree_4_3_u06_r15_network.node[7].content_store 	decision_yes[7] 	3627
scalar tree_4_3_u06_r15_network.node[7].content_store 	decision_no[7] 	33614
scalar tree_4_3_u06_r15_network.node[7].content_store 	decision_ratio[7] 	0.09739265862893
scalar tree_4_3_u06_r15_network.node[8].core_layer 	interests[8] 	28982
scalar tree_4_3_u06_r15_network.node[8].core_layer 	data[8] 	27045
scalar tree_4_3_u06_r15_network.node[8].content_store 	p_hit[8] 	0.06680008281002
scalar tree_4_3_u06_r15_network.node[8].content_store 	hits[8] 	1936
scalar tree_4_3_u06_r15_network.node[8].content_store 	misses[8] 	27046
scalar tree_4_3_u06_r15_network.node[8].content_store 	decision_yes[8] 	2698
scalar tree_4_3_u06_r15_network.node[8].content_store 	decision_no[8] 	24347
scalar tree_4_3_u06_r15_network.node[8].content_store 	decision_ratio[8] 	0.099759659826216
scalar tree_4_3_u06_r15_network.node[9].core_layer 	interests[9] 	26865
scalar tree_4_3_u06_r15_network.node[9].core_layer 	data[9] 	22691
scalar tree_4_3_u06_r15_network.node[9].content_store 	p_hit[9] 	0.15533221663875
scalar tree_4_3_u06_r15_network.node[9].content_store 	hits[9] 	4173
scalar tree_4_3_u06_r15_network.node[9].content_store 	misses[9] 	22692
scalar tree_4_3_u06_r15_network.node[9].content_store 	decision_yes[9] 	2252
scalar tree_4_3_u06_r15_network.node[9].content_store 	decision_no[9] 	20439
scalar tree_4_3_u06_r15_network.node[9].content_store 	decision_ratio[9] 	0.099246397250011
scalar tree_4_3_u06_r15_network.node[10].core_layer 	interests[10] 	40563
scalar tree_4_3_u06_r15_network.node[10].core_layer 	data[10] 	37369
scalar tree_4_3_u06_r15_network.node[10].content_store 	p_hit[10] 	0.078741710425757
scalar tree_4_3_u06_r15_network.node[10].content_store 	hits[10] 	3194
scalar tree_4_3_u06_r15_network.node[10].content_store 	misses[10] 	37369
scalar tree_4_3_u06_r15_network.node[10].content_store 	decision_yes[10] 	3675
scalar tree_4_3_u06_r15_network.node[10].content_store 	decision_no[10] 	33693
scalar tree_4_3_u06_r15_network.node[10].content_store 	decision_ratio[10] 	0.098346178548491
scalar tree_4_3_u06_r15_network.node[11].core_layer 	interests[11] 	31560
scalar tree_4_3_u06_r15_network.node[11].core_layer 	data[11] 	28724
scalar tree_4_3_u06_r15_network.node[11].content_store 	p_hit[11] 	0.089860583016477
scalar tree_4_3_u06_r15_network.node[11].content_store 	hits[11] 	2836
scalar tree_4_3_u06_r15_network.node[11].content_store 	misses[11] 	28724
scalar tree_4_3_u06_r15_network.node[11].content_store 	decision_yes[11] 	2814
scalar tree_4_3_u06_r15_network.node[11].content_store 	decision_no[11] 	25910
scalar tree_4_3_u06_r15_network.node[11].content_store 	decision_ratio[11] 	0.097966856983707
scalar tree_4_3_u06_r15_network.node[12].core_layer 	interests[12] 	22629
scalar tree_4_3_u06_r15_network.node[12].core_layer 	data[12] 	19810
scalar tree_4_3_u06_r15_network.node[12].content_store 	p_hit[12] 	0.12457466083344
scalar tree_4_3_u06_r15_network.node[12].content_store 	hits[12] 	2819
scalar tree_4_3_u06_r15_network.node[12].content_store 	misses[12] 	19810
scalar tree_4_3_u06_r15_network.node[12].content_store 	decision_yes[12] 	2013
scalar tree_4_3_u06_r15_network.node[12].content_store 	decision_no[12] 	17797
scalar tree_4_3_u06_r15_network.node[12].content_store 	decision_ratio[12] 	0.10161534578496
scalar tree_4_3_u06_r15_network.node[13].core_layer 	interests[13] 	13155
scalar tree_4_3_u06_r15_network.node[13].core_layer 	data[13] 	9513
scalar tree_4_3_u06_r15_network.node[13].content_store 	p_hit[13] 	0.27685290763968
scalar tree_4_3_u06_r15_network.node[13].content_store 	hits[13] 	3642
scalar tree_4_3_u06_r15_network.node[13].content_store 	misses[13] 	9513
scalar tree_4_3_u06_r15_network.node[13].content_store 	decision_yes[13] 	944
scalar tree_4_3_u06_r15_network.node[13].content_store 	decision_no[13] 	8569
scalar tree_4_3_u06_r15_network.node[13].content_store 	decision_ratio[13] 	0.099232629033954
scalar tree_4_3_u06_r15_network.node[14].core_layer 	interests[14] 	13218
scalar tree_4_3_u06_r15_network.node[14].core_layer 	data[14] 	9433
scalar tree_4_3_u06_r15_network.node[14].content_store 	p_hit[14] 	0.28635194431835
scalar tree_4_3_u06_r15_network.node[14].content_store 	hits[14] 	3785
scalar tree_4_3_u06_r15_network.node[14].content_store 	misses[14] 	9433
scalar tree_4_3_u06_r15_network.node[14].content_store 	decision_yes[14] 	965
scalar tree_4_3_u06_r15_network.node[14].content_store 	decision_no[14] 	8468
scalar tree_4_3_u06_r15_network.node[14].content_store 	decision_ratio[14] 	0.10230043464433
scalar tree_4_3_u06_r15_network.node[15].core_layer 	interests[15] 	13072
scalar tree_4_3_u06_r15_network.node[15].core_layer 	data[15] 	9469
scalar tree_4_3_u06_r15_network.node[15].content_store 	p_hit[15] 	0.27555079559364
scalar tree_4_3_u06_r15_network.node[15].content_store 	hits[15] 	3602
scalar tree_4_3_u06_r15_network.node[15].content_store 	misses[15] 	9470
scalar tree_4_3_u06_r15_network.node[15].content_store 	decision_yes[15] 	961
scalar tree_4_3_u06_r15_network.node[15].content_store 	decision_no[15] 	8508
scalar tree_4_3_u06_r15_network.node[15].content_store 	decision_ratio[15] 	0.10148906959552
scalar tree_4_3_u06_r15_network.node[16].core_layer 	interests[16] 	14242
scalar tree_4_3_u06_r15_network.node[16].core_layer 	data[16] 	9523
scalar tree_4_3_u06_r15_network.node[16].content_store 	p_hit[16] 	0.33134391237186
scalar tree_4_3_u06_r15_network.node[16].content_store 	hits[16] 	4719
scalar tree_4_3_u06_r15_network.node[16].content_store 	misses[16] 	9523
scalar tree_4_3_u06_r15_network.node[16].content_store 	decision_yes[16] 	965
scalar tree_4_3_u06_r15_network.node[16].content_store 	decision_no[16] 	8558
scalar tree_4_3_u06_r15_network.node[16].content_store 	decision_ratio[16] 	0.10133361335714
scalar tree_4_3_u06_r15_network.node[17].core_layer 	interests[17] 	12853
scalar tree_4_3_u06_r15_network.node[17].core_layer 	data[17] 	9462
scalar tree_4_3_u06_r15_network.node[17].content_store 	p_hit[17] 	0.2638294561581
scalar tree_4_3_u06_r15_network.node[17].content_store 	hits[17] 	3391
scalar tree_4_3_u06_r15_network.node[17].content_store 	misses[17] 	9462
scalar tree_4_3_u06_r15_network.node[17].content_store 	decision_yes[17] 	937
scalar tree_4_3_u06_r15_network.node[17].content_store 	decision_no[17] 	8525
scalar tree_4_3_u06_r15_network.node[17].content_store 	decision_ratio[17] 	0.099027689706193
scalar tree_4_3_u06_r15_network.node[18].core_layer 	interests[18] 	14113
scalar tree_4_3_u06_r15_network.node[18].core_layer 	data[18] 	9679
scalar tree_4_3_u06_r15_network.node[18].content_store 	p_hit[18] 	0.31417841706228
scalar tree_4_3_u06_r15_network.node[18].content_store 	hits[18] 	4434
scalar tree_4_3_u06_r15_network.node[18].content_store 	misses[18] 	9679
scalar tree_4_3_u06_r15_network.node[18].content_store 	decision_yes[18] 	1021
scalar tree_4_3_u06_r15_network.node[18].content_store 	decision_no[18] 	8658
scalar tree_4_3_u06_r15_network.node[18].content_store 	decision_ratio[18] 	0.10548610393636
scalar tree_4_3_u06_r15_network.node[19].core_layer 	interests[19] 	14664
scalar tree_4_3_u06_r15_network.node[19].core_layer 	data[19] 	9641
scalar tree_4_3_u06_r15_network.node[19].content_store 	p_hit[19] 	0.34247135842881
scalar tree_4_3_u06_r15_network.node[19].content_store 	hits[19] 	5022
scalar tree_4_3_u06_r15_network.node[19].content_store 	misses[19] 	9642
scalar tree_4_3_u06_r15_network.node[19].content_store 	decision_yes[19] 	1041
scalar tree_4_3_u06_r15_network.node[19].content_store 	decision_no[19] 	8600
scalar tree_4_3_u06_r15_network.node[19].content_store 	decision_ratio[19] 	0.10797635100093
scalar tree_4_3_u06_r15_network.node[20].core_layer 	interests[20] 	13243
scalar tree_4_3_u06_r15_network.node[20].core_layer 	data[20] 	9514
scalar tree_4_3_u06_r15_network.node[20].content_store 	p_hit[20] 	0.28158272294797
scalar tree_4_3_u06_r15_network.node[20].content_store 	hits[20] 	3729
scalar tree_4_3_u06_r15_network.node[20].content_store 	misses[20] 	9514
scalar tree_4_3_u06_r15_network.node[20].content_store 	decision_yes[20] 	991
scalar tree_4_3_u06_r15_network.node[20].content_store 	decision_no[20] 	8523
scalar tree_4_3_u06_r15_network.node[20].content_store 	decision_ratio[20] 	0.10416228715577
scalar tree_4_3_u06_r15_network.node[21].core_layer 	interests[21] 	12959
scalar tree_4_3_u06_r15_network.node[21].core_layer 	data[21] 	9202
scalar tree_4_3_u06_r15_network.node[21].content_store 	p_hit[21] 	0.28991434524269
scalar tree_4_3_u06_r15_network.node[21].content_store 	hits[21] 	3757
scalar tree_4_3_u06_r15_network.node[21].content_store 	misses[21] 	9202
scalar tree_4_3_u06_r15_network.node[21].content_store 	decision_yes[21] 	925
scalar tree_4_3_u06_r15_network.node[21].content_store 	decision_no[21] 	8277
scalar tree_4_3_u06_r15_network.node[21].content_store 	decision_ratio[21] 	0.10052162573354
scalar tree_4_3_u06_r15_network.node[22].core_layer 	interests[22] 	13405
scalar tree_4_3_u06_r15_network.node[22].core_layer 	data[22] 	9488
scalar tree_4_3_u06_r15_network.node[22].content_store 	p_hit[22] 	0.29220440134278
scalar tree_4_3_u06_r15_network.node[22].content_store 	hits[22] 	3917
scalar tree_4_3_u06_r15_network.node[22].content_store 	misses[22] 	9488
scalar tree_4_3_u06_r15_network.node[22].content_store 	decision_yes[22] 	927
scalar tree_4_3_u06_r15_network.node[22].content_store 	decision_no[22] 	8561
scalar tree_4_3_u06_r15_network.node[22].content_store 	decision_ratio[22] 	0.097702360876897
scalar tree_4_3_u06_r15_network.node[23].core_layer 	interests[23] 	14067
scalar tree_4_3_u06_r15_network.node[23].core_layer 	data[23] 	9509
scalar tree_4_3_u06_r15_network.node[23].content_store 	p_hit[23] 	0.32402075780195
scalar tree_4_3_u06_r15_network.node[23].content_store 	hits[23] 	4558
scalar tree_4_3_u06_r15_network.node[23].content_store 	misses[23] 	9509
scalar tree_4_3_u06_r15_network.node[23].content_store 	decision_yes[23] 	965
scalar tree_4_3_u06_r15_network.node[23].content_store 	decision_no[23] 	8544
scalar tree_4_3_u06_r15_network.node[23].content_store 	decision_ratio[23] 	0.10148280576296
scalar tree_4_3_u06_r15_network.node[24].core_layer 	interests[24] 	13236
scalar tree_4_3_u06_r15_network.node[24].core_layer 	data[24] 	9491
scalar tree_4_3_u06_r15_network.node[24].content_store 	p_hit[24] 	0.2829404653974
scalar tree_4_3_u06_r15_network.node[24].content_store 	hits[24] 	3745
scalar tree_4_3_u06_r15_network.node[24].content_store 	misses[24] 	9491
scalar tree_4_3_u06_r15_network.node[24].content_store 	decision_yes[24] 	894
scalar tree_4_3_u06_r15_network.node[24].content_store 	decision_no[24] 	8597
scalar tree_4_3_u06_r15_network.node[24].content_store 	decision_ratio[24] 	0.094194500052681
scalar tree_4_3_u06_r15_network.node[25].core_layer 	interests[25] 	12537
scalar tree_4_3_u06_r15_network.node[25].core_layer 	data[25] 	9358
scalar tree_4_3_u06_r15_network.node[25].content_store 	p_hit[25] 	0.2534896705751
scalar tree_4_3_u06_r15_network.node[25].content_store 	hits[25] 	3178
scalar tree_4_3_u06_r15_network.node[25].content_store 	misses[25] 	9359
scalar tree_4_3_u06_r15_network.node[25].content_store 	decision_yes[25] 	984
scalar tree_4_3_u06_r15_network.node[25].content_store 	decision_no[25] 	8374
scalar tree_4_3_u06_r15_network.node[25].content_store 	decision_ratio[25] 	0.10515067322077
scalar tree_4_3_u06_r15_network.node[26].core_layer 	interests[26] 	12772
scalar tree_4_3_u06_r15_network.node[26].core_layer 	data[26] 	9498
scalar tree_4_3_u06_r15_network.node[26].content_store 	p_hit[26] 	0.25634199812089
scalar tree_4_3_u06_r15_network.node[26].content_store 	hits[26] 	3274
scalar tree_4_3_u06_r15_network.node[26].content_store 	misses[26] 	9498
scalar tree_4_3_u06_r15_network.node[26].content_store 	decision_yes[26] 	953
scalar tree_4_3_u06_r15_network.node[26].content_store 	decision_no[26] 	8545
scalar tree_4_3_u06_r15_network.node[26].content_store 	decision_ratio[26] 	0.10033691303432
scalar tree_4_3_u06_r15_network.node[27].core_layer 	interests[27] 	14225
scalar tree_4_3_u06_r15_network.node[27].core_layer 	data[27] 	9641
scalar tree_4_3_u06_r15_network.node[27].content_store 	p_hit[27] 	0.32224956063269
scalar tree_4_3_u06_r15_network.node[27].content_store 	hits[27] 	4584
scalar tree_4_3_u06_r15_network.node[27].content_store 	misses[27] 	9641
scalar tree_4_3_u06_r15_network.node[27].content_store 	decision_yes[27] 	953
scalar tree_4_3_u06_r15_network.node[27].content_store 	decision_no[27] 	8688
scalar tree_4_3_u06_r15_network.node[27].content_store 	decision_ratio[27] 	0.098848667150711
scalar tree_4_3_u06_r15_network.node[28].core_layer 	interests[28] 	14438
scalar tree_4_3_u06_r15_network.node[28].core_layer 	data[28] 	9394
scalar tree_4_3_u06_r15_network.node[28].content_store 	p_hit[28] 	0.3493558664635
scalar tree_4_3_u06_r15_network.node[28].content_store 	hits[28] 	5044
scalar tree_4_3_u06_r15_network.node[28].content_store 	misses[28] 	9394
scalar tree_4_3_u06_r15_network.node[28].content_store 	decision_yes[28] 	880
scalar tree_4_3_u06_r15_network.node[28].content_store 	decision_no[28] 	8514
scalar tree_4_3_u06_r15_network.node[28].content_store 	decision_ratio[28] 	0.09367681498829
scalar tree_4_3_u06_r15_network.node[29].core_layer 	interests[29] 	13196
scalar tree_4_3_u06_r15_network.node[29].core_layer 	data[29] 	9533
scalar tree_4_3_u06_r15_network.node[29].content_store 	p_hit[29] 	0.27750833585935
scalar tree_4_3_u06_r15_network.node[29].content_store 	hits[29] 	3662
scalar tree_4_3_u06_r15_network.node[29].content_store 	misses[29] 	9534
scalar tree_4_3_u06_r15_network.node[29].content_store 	decision_yes[29] 	921
scalar tree_4_3_u06_r15_network.node[29].content_store 	decision_no[29] 	8612
scalar tree_4_3_u06_r15_network.node[29].content_store 	decision_ratio[29] 	0.096611769642295
scalar tree_4_3_u06_r15_network.node[30].core_layer 	interests[30] 	13468
scalar tree_4_3_u06_r15_network.node[30].core_layer 	data[30] 	9624
scalar tree_4_3_u06_r15_network.node[30].content_store 	p_hit[30] 	0.28541728541729
scalar tree_4_3_u06_r15_network.node[30].content_store 	hits[30] 	3844
scalar tree_4_3_u06_r15_network.node[30].content_store 	misses[30] 	9624
scalar tree_4_3_u06_r15_network.node[30].content_store 	decision_yes[30] 	933
scalar tree_4_3_u06_r15_network.node[30].content_store 	decision_no[30] 	8691
scalar tree_4_3_u06_r15_network.node[30].content_store 	decision_ratio[30] 	0.096945137157107
scalar tree_4_3_u06_r15_network.node[31].core_layer 	interests[31] 	13142
scalar tree_4_3_u06_r15_network.node[31].core_layer 	data[31] 	9507
scalar tree_4_3_u06_r15_network.node[31].content_store 	p_hit[31] 	0.27659412570385
scalar tree_4_3_u06_r15_network.node[31].content_store 	hits[31] 	3635
scalar tree_4_3_u06_r15_network.node[31].content_store 	misses[31] 	9507
scalar tree_4_3_u06_r15_network.node[31].content_store 	decision_yes[31] 	1003
scalar tree_4_3_u06_r15_network.node[31].content_store 	decision_no[31] 	8504
scalar tree_4_3_u06_r15_network.node[31].content_store 	decision_ratio[31] 	0.10550120963501
scalar tree_4_3_u06_r15_network.node[32].core_layer 	interests[32] 	14076
scalar tree_4_3_u06_r15_network.node[32].core_layer 	data[32] 	9522
scalar tree_4_3_u06_r15_network.node[32].content_store 	p_hit[32] 	0.32352941176471
scalar tree_4_3_u06_r15_network.node[32].content_store 	hits[32] 	4554
scalar tree_4_3_u06_r15_network.node[32].content_store 	misses[32] 	9522
scalar tree_4_3_u06_r15_network.node[32].content_store 	decision_yes[32] 	914
scalar tree_4_3_u06_r15_network.node[32].content_store 	decision_no[32] 	8608
scalar tree_4_3_u06_r15_network.node[32].content_store 	decision_ratio[32] 	0.095988237765175
scalar tree_4_3_u06_r15_network.node[33].core_layer 	interests[33] 	14239
scalar tree_4_3_u06_r15_network.node[33].core_layer 	data[33] 	9666
scalar tree_4_3_u06_r15_network.node[33].content_store 	p_hit[33] 	0.32116019383384
scalar tree_4_3_u06_r15_network.node[33].content_store 	hits[33] 	4573
scalar tree_4_3_u06_r15_network.node[33].content_store 	misses[33] 	9666
scalar tree_4_3_u06_r15_network.node[33].content_store 	decision_yes[33] 	954
scalar tree_4_3_u06_r15_network.node[33].content_store 	decision_no[33] 	8712
scalar tree_4_3_u06_r15_network.node[33].content_store 	decision_ratio[33] 	0.098696461824953
scalar tree_4_3_u06_r15_network.node[34].core_layer 	interests[34] 	13832
scalar tree_4_3_u06_r15_network.node[34].core_layer 	data[34] 	9352
scalar tree_4_3_u06_r15_network.node[34].content_store 	p_hit[34] 	0.32388663967611
scalar tree_4_3_u06_r15_network.node[34].content_store 	hits[34] 	4480
scalar tree_4_3_u06_r15_network.node[34].content_store 	misses[34] 	9352
scalar tree_4_3_u06_r15_network.node[34].content_store 	decision_yes[34] 	938
scalar tree_4_3_u06_r15_network.node[34].content_store 	decision_no[34] 	8414
scalar tree_4_3_u06_r15_network.node[34].content_store 	decision_ratio[34] 	0.1002994011976
scalar tree_4_3_u06_r15_network.node[35].core_layer 	interests[35] 	13102
scalar tree_4_3_u06_r15_network.node[35].core_layer 	data[35] 	9480
scalar tree_4_3_u06_r15_network.node[35].content_store 	p_hit[35] 	0.27644634406961
scalar tree_4_3_u06_r15_network.node[35].content_store 	hits[35] 	3622
scalar tree_4_3_u06_r15_network.node[35].content_store 	misses[35] 	9480
scalar tree_4_3_u06_r15_network.node[35].content_store 	decision_yes[35] 	925
scalar tree_4_3_u06_r15_network.node[35].content_store 	decision_no[35] 	8555
scalar tree_4_3_u06_r15_network.node[35].content_store 	decision_ratio[35] 	0.097573839662447
scalar tree_4_3_u06_r15_network.node[36].core_layer 	interests[36] 	13055
scalar tree_4_3_u06_r15_network.node[36].core_layer 	data[36] 	9618
scalar tree_4_3_u06_r15_network.node[36].content_store 	p_hit[36] 	0.26319417847568
scalar tree_4_3_u06_r15_network.node[36].content_store 	hits[36] 	3436
scalar tree_4_3_u06_r15_network.node[36].content_store 	misses[36] 	9619
scalar tree_4_3_u06_r15_network.node[36].content_store 	decision_yes[36] 	930
scalar tree_4_3_u06_r15_network.node[36].content_store 	decision_no[36] 	8688
scalar tree_4_3_u06_r15_network.node[36].content_store 	decision_ratio[36] 	0.096693699313787
scalar tree_4_3_u06_r15_network.node[37].core_layer 	interests[37] 	12651
scalar tree_4_3_u06_r15_network.node[37].core_layer 	data[37] 	9362
scalar tree_4_3_u06_r15_network.node[37].content_store 	p_hit[37] 	0.25997944826496
scalar tree_4_3_u06_r15_network.node[37].content_store 	hits[37] 	3289
scalar tree_4_3_u06_r15_network.node[37].content_store 	misses[37] 	9362
scalar tree_4_3_u06_r15_network.node[37].content_store 	decision_yes[37] 	977
scalar tree_4_3_u06_r15_network.node[37].content_store 	decision_no[37] 	8385
scalar tree_4_3_u06_r15_network.node[37].content_store 	decision_ratio[37] 	0.10435804315317
scalar tree_4_3_u06_r15_network.node[38].core_layer 	interests[38] 	13885
scalar tree_4_3_u06_r15_network.node[38].core_layer 	data[38] 	9418
scalar tree_4_3_u06_r15_network.node[38].content_store 	p_hit[38] 	0.32171407994238
scalar tree_4_3_u06_r15_network.node[38].content_store 	hits[38] 	4467
scalar tree_4_3_u06_r15_network.node[38].content_store 	misses[38] 	9418
scalar tree_4_3_u06_r15_network.node[38].content_store 	decision_yes[38] 	984
scalar tree_4_3_u06_r15_network.node[38].content_store 	decision_no[38] 	8434
scalar tree_4_3_u06_r15_network.node[38].content_store 	decision_ratio[38] 	0.10448078148227
scalar tree_4_3_u06_r15_network.node[39].core_layer 	interests[39] 	12996
scalar tree_4_3_u06_r15_network.node[39].core_layer 	data[39] 	9683
scalar tree_4_3_u06_r15_network.node[39].content_store 	p_hit[39] 	0.25484764542936
scalar tree_4_3_u06_r15_network.node[39].content_store 	hits[39] 	3312
scalar tree_4_3_u06_r15_network.node[39].content_store 	misses[39] 	9684
scalar tree_4_3_u06_r15_network.node[39].content_store 	decision_yes[39] 	972
scalar tree_4_3_u06_r15_network.node[39].content_store 	decision_no[39] 	8711
scalar tree_4_3_u06_r15_network.node[39].content_store 	decision_ratio[39] 	0.10038211298151
scalar tree_4_3_u06_r15_network.client[13] 	hdistance[13] 	2.8701710471422
scalar tree_4_3_u06_r15_network.client[13] 	downloads[13] 	11985
scalar tree_4_3_u06_r15_network.client[13] 	avg_time[13] 	0.004581724143
scalar tree_4_3_u06_r15_network.client[14] 	hdistance[14] 	2.8361023425818
scalar tree_4_3_u06_r15_network.client[14] 	downloads[14] 	12038
scalar tree_4_3_u06_r15_network.client[14] 	avg_time[14] 	0.004522342879
scalar tree_4_3_u06_r15_network.client[15] 	hdistance[15] 	2.864056461099
scalar tree_4_3_u06_r15_network.client[15] 	downloads[15] 	11902
scalar tree_4_3_u06_r15_network.client[15] 	avg_time[15] 	0.004566114563
scalar tree_4_3_u06_r15_network.client[16] 	hdistance[16] 	2.7676259586048
scalar tree_4_3_u06_r15_network.client[16] 	downloads[16] 	12127
scalar tree_4_3_u06_r15_network.client[16] 	avg_time[16] 	0.004418854222
scalar tree_4_3_u06_r15_network.client[17] 	hdistance[17] 	2.8809162876874
scalar tree_4_3_u06_r15_network.client[17] 	downloads[17] 	11874
scalar tree_4_3_u06_r15_network.client[17] 	avg_time[17] 	0.004642409031
scalar tree_4_3_u06_r15_network.client[18] 	hdistance[18] 	2.7773343310884
scalar tree_4_3_u06_r15_network.client[18] 	downloads[18] 	12027
scalar tree_4_3_u06_r15_network.client[18] 	avg_time[18] 	0.004464950852
scalar tree_4_3_u06_r15_network.client[19] 	hdistance[19] 	2.7551491184709
scalar tree_4_3_u06_r15_network.client[19] 	downloads[19] 	12138
scalar tree_4_3_u06_r15_network.client[19] 	avg_time[19] 	0.004423502981
scalar tree_4_3_u06_r15_network.client[20] 	hdistance[20] 	2.8395175475333
scalar tree_4_3_u06_r15_network.client[20] 	downloads[20] 	11939
scalar tree_4_3_u06_r15_network.client[20] 	avg_time[20] 	0.00457860494
scalar tree_4_3_u06_r15_network.client[21] 	hdistance[21] 	2.817458279846
scalar tree_4_3_u06_r15_network.client[21] 	downloads[21] 	11685
scalar tree_4_3_u06_r15_network.client[21] 	avg_time[21] 	0.00453093421
scalar tree_4_3_u06_r15_network.client[22] 	hdistance[22] 	2.8183168316832
scalar tree_4_3_u06_r15_network.client[22] 	downloads[22] 	12120
scalar tree_4_3_u06_r15_network.client[22] 	avg_time[22] 	0.004532010218
scalar tree_4_3_u06_r15_network.client[23] 	hdistance[23] 	2.7768183327798
scalar tree_4_3_u06_r15_network.client[23] 	downloads[23] 	12044
scalar tree_4_3_u06_r15_network.client[23] 	avg_time[23] 	0.004442374971
scalar tree_4_3_u06_r15_network.client[24] 	hdistance[24] 	2.8520288397049
scalar tree_4_3_u06_r15_network.client[24] 	downloads[24] 	11928
scalar tree_4_3_u06_r15_network.client[24] 	avg_time[24] 	0.004598923862
scalar tree_4_3_u06_r15_network.client[25] 	hdistance[25] 	2.9012692733623
scalar tree_4_3_u06_r15_network.client[25] 	downloads[25] 	11739
scalar tree_4_3_u06_r15_network.client[25] 	avg_time[25] 	0.004588462859
scalar tree_4_3_u06_r15_network.client[26] 	hdistance[26] 	2.8956195244055
scalar tree_4_3_u06_r15_network.client[26] 	downloads[26] 	11985
scalar tree_4_3_u06_r15_network.client[26] 	avg_time[26] 	0.004577552299
scalar tree_4_3_u06_r15_network.client[27] 	hdistance[27] 	2.7817099388126
scalar tree_4_3_u06_r15_network.client[27] 	downloads[27] 	12094
scalar tree_4_3_u06_r15_network.client[27] 	avg_time[27] 	0.004449345028
scalar tree_4_3_u06_r15_network.client[28] 	hdistance[28] 	2.7263694054776
scalar tree_4_3_u06_r15_network.client[28] 	downloads[28] 	11976
scalar tree_4_3_u06_r15_network.client[28] 	avg_time[28] 	0.004375827671
scalar tree_4_3_u06_r15_network.client[29] 	hdistance[29] 	2.8433634236041
scalar tree_4_3_u06_r15_network.client[29] 	downloads[29] 	11964
scalar tree_4_3_u06_r15_network.client[29] 	avg_time[29] 	0.004572382628
scalar tree_4_3_u06_r15_network.client[30] 	hdistance[30] 	2.8319043693322
scalar tree_4_3_u06_r15_network.client[30] 	downloads[30] 	12130
scalar tree_4_3_u06_r15_network.client[30] 	avg_time[30] 	0.004563723257
scalar tree_4_3_u06_r15_network.client[31] 	hdistance[31] 	2.8759945826985
scalar tree_4_3_u06_r15_network.client[31] 	downloads[31] 	11814
scalar tree_4_3_u06_r15_network.client[31] 	avg_time[31] 	0.004642724527
scalar tree_4_3_u06_r15_network.client[32] 	hdistance[32] 	2.7661870503597
scalar tree_4_3_u06_r15_network.client[32] 	downloads[32] 	11954
scalar tree_4_3_u06_r15_network.client[32] 	avg_time[32] 	0.004443363223
scalar tree_4_3_u06_r15_network.client[33] 	hdistance[33] 	2.7723236309818
scalar tree_4_3_u06_r15_network.client[33] 	downloads[33] 	12162
scalar tree_4_3_u06_r15_network.client[33] 	avg_time[33] 	0.004442029532
scalar tree_4_3_u06_r15_network.client[34] 	hdistance[34] 	2.7848822379049
scalar tree_4_3_u06_r15_network.client[34] 	downloads[34] 	11761
scalar tree_4_3_u06_r15_network.client[34] 	avg_time[34] 	0.004463733103
scalar tree_4_3_u06_r15_network.client[35] 	hdistance[35] 	2.8554327808471
scalar tree_4_3_u06_r15_network.client[35] 	downloads[35] 	11946
scalar tree_4_3_u06_r15_network.client[35] 	avg_time[35] 	0.004545786431
scalar tree_4_3_u06_r15_network.client[36] 	hdistance[36] 	2.8730833333333
scalar tree_4_3_u06_r15_network.client[36] 	downloads[36] 	12000
scalar tree_4_3_u06_r15_network.client[36] 	avg_time[36] 	0.004575262239
scalar tree_4_3_u06_r15_network.client[37] 	hdistance[37] 	2.8673850330901
scalar tree_4_3_u06_r15_network.client[37] 	downloads[37] 	11786
scalar tree_4_3_u06_r15_network.client[37] 	avg_time[37] 	0.004568637828
scalar tree_4_3_u06_r15_network.client[38] 	hdistance[38] 	2.7535252398832
scalar tree_4_3_u06_r15_network.client[38] 	downloads[38] 	11985
scalar tree_4_3_u06_r15_network.client[38] 	avg_time[38] 	0.004354440061
scalar tree_4_3_u06_r15_network.client[39] 	hdistance[39] 	2.8767472455188
scalar tree_4_3_u06_r15_network.client[39] 	downloads[39] 	12162
scalar tree_4_3_u06_r15_network.client[39] 	avg_time[39] 	0.004588926662
