version 2
run General-136-20160819-09:05:27-13837
attr a 0.9
attr cd fix0.1
attr configname General
attr cr lru
attr datetime 20160819-09:05:27
attr experiment General
attr fsize 1
attr inifile hw5115/scenario_A/NRR-FIX0.1.ini
attr iterationvars "$name=tree_4_3, $un=06, $rep=17, $cd=fix0.1, $cr=lru, $fsize=1, $a=0.9, $sl=nrr, $ttl=1000, $variance=0.05"
attr iterationvars2 "$name=tree_4_3, $un=06, $rep=17, $cd=fix0.1, $cr=lru, $fsize=1, $a=0.9, $sl=nrr, $ttl=1000, $variance=0.05, $repetition=0"
attr measurement "$name=tree_4_3, $un=06, $rep=17, $cd=fix0.1, $cr=lru, $fsize=1, $a=0.9, $sl=nrr, $ttl=1000, $variance=0.05"
attr name tree_4_3
attr network networks.${name}_u${un}_r${rep}_network
attr processid 13837
attr rep 17
attr repetition 0
attr replication #0
attr resultdir results
attr runnumber 136
attr seedset 17
attr sl nrr
attr ttl 1000
attr un 06
attr variance 0.05

scalar . 	a 	0.9
scalar . 	fsize 	1
scalar . 	rep 	17
scalar . 	ttl 	1000
scalar . 	un 	06
scalar . 	variance 	0.05
scalar tree_4_3_u06_r17_network.content_distribution 	repo-0 	0
scalar tree_4_3_u06_r17_network.content_distribution 	client-0 	13
scalar tree_4_3_u06_r17_network.content_distribution 	client-1 	14
scalar tree_4_3_u06_r17_network.content_distribution 	client-2 	15
scalar tree_4_3_u06_r17_network.content_distribution 	client-3 	16
scalar tree_4_3_u06_r17_network.content_distribution 	client-4 	17
scalar tree_4_3_u06_r17_network.content_distribution 	client-5 	18
scalar tree_4_3_u06_r17_network.content_distribution 	client-6 	19
scalar tree_4_3_u06_r17_network.content_distribution 	client-7 	20
scalar tree_4_3_u06_r17_network.content_distribution 	client-8 	21
scalar tree_4_3_u06_r17_network.content_distribution 	client-9 	22
scalar tree_4_3_u06_r17_network.content_distribution 	client-10 	23
scalar tree_4_3_u06_r17_network.content_distribution 	client-11 	24
scalar tree_4_3_u06_r17_network.content_distribution 	client-12 	25
scalar tree_4_3_u06_r17_network.content_distribution 	client-13 	26
scalar tree_4_3_u06_r17_network.content_distribution 	client-14 	27
scalar tree_4_3_u06_r17_network.content_distribution 	client-15 	28
scalar tree_4_3_u06_r17_network.content_distribution 	client-16 	29
scalar tree_4_3_u06_r17_network.content_distribution 	client-17 	30
scalar tree_4_3_u06_r17_network.content_distribution 	client-18 	31
scalar tree_4_3_u06_r17_network.content_distribution 	client-19 	32
scalar tree_4_3_u06_r17_network.content_distribution 	client-20 	33
scalar tree_4_3_u06_r17_network.content_distribution 	client-21 	34
scalar tree_4_3_u06_r17_network.content_distribution 	client-22 	35
scalar tree_4_3_u06_r17_network.content_distribution 	client-23 	36
scalar tree_4_3_u06_r17_network.content_distribution 	client-24 	37
scalar tree_4_3_u06_r17_network.content_distribution 	client-25 	38
scalar tree_4_3_u06_r17_network.content_distribution 	client-26 	39
scalar tree_4_3_u06_r17_network.content_distribution 	repo-0_card 	100000
scalar tree_4_3_u06_r17_network.content_distribution 	repo-0_price 	0
scalar tree_4_3_u06_r17_network.statistics 	stabilization_time 	730.6
scalar tree_4_3_u06_r17_network.statistics 	p_hit 	0.22313657556189
scalar tree_4_3_u06_r17_network.statistics 	interests 	26369.75
scalar tree_4_3_u06_r17_network.statistics 	data 	18252.725
scalar tree_4_3_u06_r17_network.statistics 	hdistance 	2.8293979643868
scalar tree_4_3_u06_r17_network.statistics 	avg_time 	0.004497531111
scalar tree_4_3_u06_r17_network.statistics 	downloads 	324684
scalar tree_4_3_u06_r17_network.statistics 	total_cost 	0
scalar tree_4_3_u06_r17_network.statistics 	total_replicas 	100000
scalar tree_4_3_u06_r17_network.statistics 	inner_hit 	0.4193708344113
scalar tree_4_3_u06_r17_network.node[0].core_layer 	interests[0] 	189645
scalar tree_4_3_u06_r17_network.node[0].core_layer 	repo_load[0] 	188521
scalar tree_4_3_u06_r17_network.node[0].core_layer 	data[0] 	0
scalar tree_4_3_u06_r17_network.node[0].core_layer 	repo_int[0] 	188521
scalar tree_4_3_u06_r17_network.node[0].content_store 	p_hit[0] 	0.0059268633499433
scalar tree_4_3_u06_r17_network.node[0].content_store 	hits[0] 	1124
scalar tree_4_3_u06_r17_network.node[0].content_store 	misses[0] 	188521
scalar tree_4_3_u06_r17_network.node[0].content_store 	decision_yes[0] 	18860
scalar tree_4_3_u06_r17_network.node[0].content_store 	decision_no[0] 	169661
scalar tree_4_3_u06_r17_network.node[0].content_store 	decision_ratio[0] 	0.10004190514585
scalar tree_4_3_u06_r17_network.node[1].core_layer 	interests[1] 	92399
scalar tree_4_3_u06_r17_network.node[1].core_layer 	data[1] 	91619
scalar tree_4_3_u06_r17_network.node[1].content_store 	p_hit[1] 	0.0084632950573058
scalar tree_4_3_u06_r17_network.node[1].content_store 	hits[1] 	782
scalar tree_4_3_u06_r17_network.node[1].content_store 	misses[1] 	91617
scalar tree_4_3_u06_r17_network.node[1].content_store 	decision_yes[1] 	9129
scalar tree_4_3_u06_r17_network.node[1].content_store 	decision_no[1] 	82489
scalar tree_4_3_u06_r17_network.node[1].content_store 	decision_ratio[1] 	0.099641991748346
scalar tree_4_3_u06_r17_network.node[2].core_layer 	interests[2] 	100454
scalar tree_4_3_u06_r17_network.node[2].core_layer 	data[2] 	99486
scalar tree_4_3_u06_r17_network.node[2].content_store 	p_hit[2] 	0.0096163418081908
scalar tree_4_3_u06_r17_network.node[2].content_store 	hits[2] 	966
scalar tree_4_3_u06_r17_network.node[2].content_store 	misses[2] 	99488
scalar tree_4_3_u06_r17_network.node[2].content_store 	decision_yes[2] 	9888
scalar tree_4_3_u06_r17_network.node[2].content_store 	decision_no[2] 	89598
scalar tree_4_3_u06_r17_network.node[2].content_store 	decision_ratio[2] 	0.099390869067004
scalar tree_4_3_u06_r17_network.node[3].core_layer 	interests[3] 	26802
scalar tree_4_3_u06_r17_network.node[3].core_layer 	data[3] 	23487
scalar tree_4_3_u06_r17_network.node[3].content_store 	p_hit[3] 	0.12368479964182
scalar tree_4_3_u06_r17_network.node[3].content_store 	hits[3] 	3315
scalar tree_4_3_u06_r17_network.node[3].content_store 	misses[3] 	23487
scalar tree_4_3_u06_r17_network.node[3].content_store 	decision_yes[3] 	2309
scalar tree_4_3_u06_r17_network.node[3].content_store 	decision_no[3] 	21178
scalar tree_4_3_u06_r17_network.node[3].content_store 	decision_ratio[3] 	0.09830970324009
scalar tree_4_3_u06_r17_network.node[4].core_layer 	interests[4] 	46314
scalar tree_4_3_u06_r17_network.node[4].core_layer 	data[4] 	44388
scalar tree_4_3_u06_r17_network.node[4].content_store 	p_hit[4] 	0.041607289372544
scalar tree_4_3_u06_r17_network.node[4].content_store 	hits[4] 	1927
scalar tree_4_3_u06_r17_network.node[4].content_store 	misses[4] 	44387
scalar tree_4_3_u06_r17_network.node[4].content_store 	decision_yes[4] 	4479
scalar tree_4_3_u06_r17_network.node[4].content_store 	decision_no[4] 	39909
scalar tree_4_3_u06_r17_network.node[4].content_store 	decision_ratio[4] 	0.10090565017572
scalar tree_4_3_u06_r17_network.node[5].core_layer 	interests[5] 	30161
scalar tree_4_3_u06_r17_network.node[5].core_layer 	data[5] 	27646
scalar tree_4_3_u06_r17_network.node[5].content_store 	p_hit[5] 	0.083385829382315
scalar tree_4_3_u06_r17_network.node[5].content_store 	hits[5] 	2515
scalar tree_4_3_u06_r17_network.node[5].content_store 	misses[5] 	27646
scalar tree_4_3_u06_r17_network.node[5].content_store 	decision_yes[5] 	2733
scalar tree_4_3_u06_r17_network.node[5].content_store 	decision_no[5] 	24913
scalar tree_4_3_u06_r17_network.node[5].content_store 	decision_ratio[5] 	0.098856977501266
scalar tree_4_3_u06_r17_network.node[6].core_layer 	interests[6] 	16464
scalar tree_4_3_u06_r17_network.node[6].core_layer 	data[6] 	12502
scalar tree_4_3_u06_r17_network.node[6].content_store 	p_hit[6] 	0.2406462585034
scalar tree_4_3_u06_r17_network.node[6].content_store 	hits[6] 	3962
scalar tree_4_3_u06_r17_network.node[6].content_store 	misses[6] 	12502
scalar tree_4_3_u06_r17_network.node[6].content_store 	decision_yes[6] 	1221
scalar tree_4_3_u06_r17_network.node[6].content_store 	decision_no[6] 	11281
scalar tree_4_3_u06_r17_network.node[6].content_store 	decision_ratio[6] 	0.097664373700208
scalar tree_4_3_u06_r17_network.node[7].core_layer 	interests[7] 	46228
scalar tree_4_3_u06_r17_network.node[7].core_layer 	data[7] 	44499
scalar tree_4_3_u06_r17_network.node[7].content_store 	p_hit[7] 	0.037379942891754
scalar tree_4_3_u06_r17_network.node[7].content_store 	hits[7] 	1728
scalar tree_4_3_u06_r17_network.node[7].content_store 	misses[7] 	44500
scalar tree_4_3_u06_r17_network.node[7].content_store 	decision_yes[7] 	4290
scalar tree_4_3_u06_r17_network.node[7].content_store 	decision_no[7] 	40209
scalar tree_4_3_u06_r17_network.node[7].content_store 	decision_ratio[7] 	0.096406660823839
scalar tree_4_3_u06_r17_network.node[8].core_layer 	interests[8] 	29484
scalar tree_4_3_u06_r17_network.node[8].core_layer 	data[8] 	27346
scalar tree_4_3_u06_r17_network.node[8].content_store 	p_hit[8] 	0.072513905847239
scalar tree_4_3_u06_r17_network.node[8].content_store 	hits[8] 	2138
scalar tree_4_3_u06_r17_network.node[8].content_store 	misses[8] 	27346
scalar tree_4_3_u06_r17_network.node[8].content_store 	decision_yes[8] 	2705
scalar tree_4_3_u06_r17_network.node[8].content_store 	decision_no[8] 	24641
scalar tree_4_3_u06_r17_network.node[8].content_store 	decision_ratio[8] 	0.098917574782418
scalar tree_4_3_u06_r17_network.node[9].core_layer 	interests[9] 	17987
scalar tree_4_3_u06_r17_network.node[9].core_layer 	data[9] 	13433
scalar tree_4_3_u06_r17_network.node[9].content_store 	p_hit[9] 	0.25312725857564
scalar tree_4_3_u06_r17_network.node[9].content_store 	hits[9] 	4553
scalar tree_4_3_u06_r17_network.node[9].content_store 	misses[9] 	13434
scalar tree_4_3_u06_r17_network.node[9].content_store 	decision_yes[9] 	1398
scalar tree_4_3_u06_r17_network.node[9].content_store 	decision_no[9] 	12034
scalar tree_4_3_u06_r17_network.node[9].content_store 	decision_ratio[9] 	0.10407980941036
scalar tree_4_3_u06_r17_network.node[10].core_layer 	interests[10] 	30913
scalar tree_4_3_u06_r17_network.node[10].core_layer 	data[10] 	28338
scalar tree_4_3_u06_r17_network.node[10].content_store 	p_hit[10] 	0.083330637595833
scalar tree_4_3_u06_r17_network.node[10].content_store 	hits[10] 	2576
scalar tree_4_3_u06_r17_network.node[10].content_store 	misses[10] 	28337
scalar tree_4_3_u06_r17_network.node[10].content_store 	decision_yes[10] 	2795
scalar tree_4_3_u06_r17_network.node[10].content_store 	decision_no[10] 	25543
scalar tree_4_3_u06_r17_network.node[10].content_store 	decision_ratio[10] 	0.098630813748324
scalar tree_4_3_u06_r17_network.node[11].core_layer 	interests[11] 	42951
scalar tree_4_3_u06_r17_network.node[11].core_layer 	data[11] 	39867
scalar tree_4_3_u06_r17_network.node[11].content_store 	p_hit[11] 	0.071802751973179
scalar tree_4_3_u06_r17_network.node[11].content_store 	hits[11] 	3084
scalar tree_4_3_u06_r17_network.node[11].content_store 	misses[11] 	39867
scalar tree_4_3_u06_r17_network.node[11].content_store 	decision_yes[11] 	3905
scalar tree_4_3_u06_r17_network.node[11].content_store 	decision_no[11] 	35962
scalar tree_4_3_u06_r17_network.node[11].content_store 	decision_ratio[11] 	0.097950686031053
scalar tree_4_3_u06_r17_network.node[12].core_layer 	interests[12] 	22362
scalar tree_4_3_u06_r17_network.node[12].core_layer 	data[12] 	19578
scalar tree_4_3_u06_r17_network.node[12].content_store 	p_hit[12] 	0.12449691440837
scalar tree_4_3_u06_r17_network.node[12].content_store 	hits[12] 	2784
scalar tree_4_3_u06_r17_network.node[12].content_store 	misses[12] 	19578
scalar tree_4_3_u06_r17_network.node[12].content_store 	decision_yes[12] 	1974
scalar tree_4_3_u06_r17_network.node[12].content_store 	decision_no[12] 	17604
scalar tree_4_3_u06_r17_network.node[12].content_store 	decision_ratio[12] 	0.1008274593932
scalar tree_4_3_u06_r17_network.node[13].core_layer 	interests[13] 	12945
scalar tree_4_3_u06_r17_network.node[13].core_layer 	data[13] 	9545
scalar tree_4_3_u06_r17_network.node[13].content_store 	p_hit[13] 	0.26272692159135
scalar tree_4_3_u06_r17_network.node[13].content_store 	hits[13] 	3401
scalar tree_4_3_u06_r17_network.node[13].content_store 	misses[13] 	9544
scalar tree_4_3_u06_r17_network.node[13].content_store 	decision_yes[13] 	954
scalar tree_4_3_u06_r17_network.node[13].content_store 	decision_no[13] 	8591
scalar tree_4_3_u06_r17_network.node[13].content_store 	decision_ratio[13] 	0.099947616553169
scalar tree_4_3_u06_r17_network.node[14].core_layer 	interests[14] 	13847
scalar tree_4_3_u06_r17_network.node[14].core_layer 	data[14] 	9558
scalar tree_4_3_u06_r17_network.node[14].content_store 	p_hit[14] 	0.30974218242219
scalar tree_4_3_u06_r17_network.node[14].content_store 	hits[14] 	4289
scalar tree_4_3_u06_r17_network.node[14].content_store 	misses[14] 	9558
scalar tree_4_3_u06_r17_network.node[14].content_store 	decision_yes[14] 	931
scalar tree_4_3_u06_r17_network.node[14].content_store 	decision_no[14] 	8627
scalar tree_4_3_u06_r17_network.node[14].content_store 	decision_ratio[14] 	0.097405314919439
scalar tree_4_3_u06_r17_network.node[15].core_layer 	interests[15] 	12965
scalar tree_4_3_u06_r17_network.node[15].core_layer 	data[15] 	9628
scalar tree_4_3_u06_r17_network.node[15].content_store 	p_hit[15] 	0.25738526802931
scalar tree_4_3_u06_r17_network.node[15].content_store 	hits[15] 	3337
scalar tree_4_3_u06_r17_network.node[15].content_store 	misses[15] 	9628
scalar tree_4_3_u06_r17_network.node[15].content_store 	decision_yes[15] 	968
scalar tree_4_3_u06_r17_network.node[15].content_store 	decision_no[15] 	8660
scalar tree_4_3_u06_r17_network.node[15].content_store 	decision_ratio[15] 	0.10054009140008
scalar tree_4_3_u06_r17_network.node[16].core_layer 	interests[16] 	13859
scalar tree_4_3_u06_r17_network.node[16].core_layer 	data[16] 	9512
scalar tree_4_3_u06_r17_network.node[16].content_store 	p_hit[16] 	0.31373114943358
scalar tree_4_3_u06_r17_network.node[16].content_store 	hits[16] 	4348
scalar tree_4_3_u06_r17_network.node[16].content_store 	misses[16] 	9511
scalar tree_4_3_u06_r17_network.node[16].content_store 	decision_yes[16] 	910
scalar tree_4_3_u06_r17_network.node[16].content_store 	decision_no[16] 	8602
scalar tree_4_3_u06_r17_network.node[16].content_store 	decision_ratio[16] 	0.095668629100084
scalar tree_4_3_u06_r17_network.node[17].core_layer 	interests[17] 	12970
scalar tree_4_3_u06_r17_network.node[17].core_layer 	data[17] 	9604
scalar tree_4_3_u06_r17_network.node[17].content_store 	p_hit[17] 	0.25952197378566
scalar tree_4_3_u06_r17_network.node[17].content_store 	hits[17] 	3366
scalar tree_4_3_u06_r17_network.node[17].content_store 	misses[17] 	9604
scalar tree_4_3_u06_r17_network.node[17].content_store 	decision_yes[17] 	1006
scalar tree_4_3_u06_r17_network.node[17].content_store 	decision_no[17] 	8598
scalar tree_4_3_u06_r17_network.node[17].content_store 	decision_ratio[17] 	0.10474802165764
scalar tree_4_3_u06_r17_network.node[18].core_layer 	interests[18] 	12783
scalar tree_4_3_u06_r17_network.node[18].core_layer 	data[18] 	9486
scalar tree_4_3_u06_r17_network.node[18].content_store 	p_hit[18] 	0.25784244699992
scalar tree_4_3_u06_r17_network.node[18].content_store 	hits[18] 	3296
scalar tree_4_3_u06_r17_network.node[18].content_store 	misses[18] 	9487
scalar tree_4_3_u06_r17_network.node[18].content_store 	decision_yes[18] 	951
scalar tree_4_3_u06_r17_network.node[18].content_store 	decision_no[18] 	8535
scalar tree_4_3_u06_r17_network.node[18].content_store 	decision_ratio[18] 	0.10025300442758
scalar tree_4_3_u06_r17_network.node[19].core_layer 	interests[19] 	13972
scalar tree_4_3_u06_r17_network.node[19].core_layer 	data[19] 	9470
scalar tree_4_3_u06_r17_network.node[19].content_store 	p_hit[19] 	0.32214428857715
scalar tree_4_3_u06_r17_network.node[19].content_store 	hits[19] 	4501
scalar tree_4_3_u06_r17_network.node[19].content_store 	misses[19] 	9471
scalar tree_4_3_u06_r17_network.node[19].content_store 	decision_yes[19] 	908
scalar tree_4_3_u06_r17_network.node[19].content_store 	decision_no[19] 	8562
scalar tree_4_3_u06_r17_network.node[19].content_store 	decision_ratio[19] 	0.095881731784583
scalar tree_4_3_u06_r17_network.node[20].core_layer 	interests[20] 	13775
scalar tree_4_3_u06_r17_network.node[20].core_layer 	data[20] 	9571
scalar tree_4_3_u06_r17_network.node[20].content_store 	p_hit[20] 	0.30526315789474
scalar tree_4_3_u06_r17_network.node[20].content_store 	hits[20] 	4205
scalar tree_4_3_u06_r17_network.node[20].content_store 	misses[20] 	9570
scalar tree_4_3_u06_r17_network.node[20].content_store 	decision_yes[20] 	993
scalar tree_4_3_u06_r17_network.node[20].content_store 	decision_no[20] 	8578
scalar tree_4_3_u06_r17_network.node[20].content_store 	decision_ratio[20] 	0.10375091422004
scalar tree_4_3_u06_r17_network.node[21].core_layer 	interests[21] 	12993
scalar tree_4_3_u06_r17_network.node[21].core_layer 	data[21] 	9586
scalar tree_4_3_u06_r17_network.node[21].content_store 	p_hit[21] 	0.26221811744786
scalar tree_4_3_u06_r17_network.node[21].content_store 	hits[21] 	3407
scalar tree_4_3_u06_r17_network.node[21].content_store 	misses[21] 	9586
scalar tree_4_3_u06_r17_network.node[21].content_store 	decision_yes[21] 	948
scalar tree_4_3_u06_r17_network.node[21].content_store 	decision_no[21] 	8638
scalar tree_4_3_u06_r17_network.node[21].content_store 	decision_ratio[21] 	0.098894220738577
scalar tree_4_3_u06_r17_network.node[22].core_layer 	interests[22] 	13270
scalar tree_4_3_u06_r17_network.node[22].core_layer 	data[22] 	9588
scalar tree_4_3_u06_r17_network.node[22].content_store 	p_hit[22] 	0.27739261492087
scalar tree_4_3_u06_r17_network.node[22].content_store 	hits[22] 	3681
scalar tree_4_3_u06_r17_network.node[22].content_store 	misses[22] 	9589
scalar tree_4_3_u06_r17_network.node[22].content_store 	decision_yes[22] 	1001
scalar tree_4_3_u06_r17_network.node[22].content_store 	decision_no[22] 	8587
scalar tree_4_3_u06_r17_network.node[22].content_store 	decision_ratio[22] 	0.10440133500209
scalar tree_4_3_u06_r17_network.node[23].core_layer 	interests[23] 	12963
scalar tree_4_3_u06_r17_network.node[23].core_layer 	data[23] 	9603
scalar tree_4_3_u06_r17_network.node[23].content_store 	p_hit[23] 	0.25919925943069
scalar tree_4_3_u06_r17_network.node[23].content_store 	hits[23] 	3360
scalar tree_4_3_u06_r17_network.node[23].content_store 	misses[23] 	9603
scalar tree_4_3_u06_r17_network.node[23].content_store 	decision_yes[23] 	967
scalar tree_4_3_u06_r17_network.node[23].content_store 	decision_no[23] 	8636
scalar tree_4_3_u06_r17_network.node[23].content_store 	decision_ratio[23] 	0.10069769863584
scalar tree_4_3_u06_r17_network.node[24].core_layer 	interests[24] 	13889
scalar tree_4_3_u06_r17_network.node[24].core_layer 	data[24] 	9543
scalar tree_4_3_u06_r17_network.node[24].content_store 	p_hit[24] 	0.31290949672403
scalar tree_4_3_u06_r17_network.node[24].content_store 	hits[24] 	4346
scalar tree_4_3_u06_r17_network.node[24].content_store 	misses[24] 	9543
scalar tree_4_3_u06_r17_network.node[24].content_store 	decision_yes[24] 	965
scalar tree_4_3_u06_r17_network.node[24].content_store 	decision_no[24] 	8578
scalar tree_4_3_u06_r17_network.node[24].content_store 	decision_ratio[24] 	0.10112124069999
scalar tree_4_3_u06_r17_network.node[25].core_layer 	interests[25] 	14120
scalar tree_4_3_u06_r17_network.node[25].core_layer 	data[25] 	9611
scalar tree_4_3_u06_r17_network.node[25].content_store 	p_hit[25] 	0.3193342776204
scalar tree_4_3_u06_r17_network.node[25].content_store 	hits[25] 	4509
scalar tree_4_3_u06_r17_network.node[25].content_store 	misses[25] 	9611
scalar tree_4_3_u06_r17_network.node[25].content_store 	decision_yes[25] 	981
scalar tree_4_3_u06_r17_network.node[25].content_store 	decision_no[25] 	8630
scalar tree_4_3_u06_r17_network.node[25].content_store 	decision_ratio[25] 	0.10207054416814
scalar tree_4_3_u06_r17_network.node[26].core_layer 	interests[26] 	13021
scalar tree_4_3_u06_r17_network.node[26].core_layer 	data[26] 	9455
scalar tree_4_3_u06_r17_network.node[26].content_store 	p_hit[26] 	0.27386529452423
scalar tree_4_3_u06_r17_network.node[26].content_store 	hits[26] 	3566
scalar tree_4_3_u06_r17_network.node[26].content_store 	misses[26] 	9455
scalar tree_4_3_u06_r17_network.node[26].content_store 	decision_yes[26] 	957
scalar tree_4_3_u06_r17_network.node[26].content_store 	decision_no[26] 	8498
scalar tree_4_3_u06_r17_network.node[26].content_store 	decision_ratio[26] 	0.10121628767848
scalar tree_4_3_u06_r17_network.node[27].core_layer 	interests[27] 	12798
scalar tree_4_3_u06_r17_network.node[27].core_layer 	data[27] 	9530
scalar tree_4_3_u06_r17_network.node[27].content_store 	p_hit[27] 	0.25535239881231
scalar tree_4_3_u06_r17_network.node[27].content_store 	hits[27] 	3268
scalar tree_4_3_u06_r17_network.node[27].content_store 	misses[27] 	9530
scalar tree_4_3_u06_r17_network.node[27].content_store 	decision_yes[27] 	961
scalar tree_4_3_u06_r17_network.node[27].content_store 	decision_no[27] 	8569
scalar tree_4_3_u06_r17_network.node[27].content_store 	decision_ratio[27] 	0.10083945435467
scalar tree_4_3_u06_r17_network.node[28].core_layer 	interests[28] 	13931
scalar tree_4_3_u06_r17_network.node[28].core_layer 	data[28] 	9534
scalar tree_4_3_u06_r17_network.node[28].content_store 	p_hit[28] 	0.31562701887876
scalar tree_4_3_u06_r17_network.node[28].content_store 	hits[28] 	4397
scalar tree_4_3_u06_r17_network.node[28].content_store 	misses[28] 	9534
scalar tree_4_3_u06_r17_network.node[28].content_store 	decision_yes[28] 	959
scalar tree_4_3_u06_r17_network.node[28].content_store 	decision_no[28] 	8575
scalar tree_4_3_u06_r17_network.node[28].content_store 	decision_ratio[28] 	0.10058737151248
scalar tree_4_3_u06_r17_network.node[29].core_layer 	interests[29] 	13929
scalar tree_4_3_u06_r17_network.node[29].core_layer 	data[29] 	9561
scalar tree_4_3_u06_r17_network.node[29].content_store 	p_hit[29] 	0.31359035106612
scalar tree_4_3_u06_r17_network.node[29].content_store 	hits[29] 	4368
scalar tree_4_3_u06_r17_network.node[29].content_store 	misses[29] 	9561
scalar tree_4_3_u06_r17_network.node[29].content_store 	decision_yes[29] 	969
scalar tree_4_3_u06_r17_network.node[29].content_store 	decision_no[29] 	8592
scalar tree_4_3_u06_r17_network.node[29].content_store 	decision_ratio[29] 	0.10134923125196
scalar tree_4_3_u06_r17_network.node[30].core_layer 	interests[30] 	12934
scalar tree_4_3_u06_r17_network.node[30].core_layer 	data[30] 	9443
scalar tree_4_3_u06_r17_network.node[30].content_store 	p_hit[30] 	0.2699087675893
scalar tree_4_3_u06_r17_network.node[30].content_store 	hits[30] 	3491
scalar tree_4_3_u06_r17_network.node[30].content_store 	misses[30] 	9443
scalar tree_4_3_u06_r17_network.node[30].content_store 	decision_yes[30] 	918
scalar tree_4_3_u06_r17_network.node[30].content_store 	decision_no[30] 	8525
scalar tree_4_3_u06_r17_network.node[30].content_store 	decision_ratio[30] 	0.097214868156306
scalar tree_4_3_u06_r17_network.node[31].core_layer 	interests[31] 	13178
scalar tree_4_3_u06_r17_network.node[31].core_layer 	data[31] 	9517
scalar tree_4_3_u06_r17_network.node[31].content_store 	p_hit[31] 	0.27781150402185
scalar tree_4_3_u06_r17_network.node[31].content_store 	hits[31] 	3661
scalar tree_4_3_u06_r17_network.node[31].content_store 	misses[31] 	9517
scalar tree_4_3_u06_r17_network.node[31].content_store 	decision_yes[31] 	965
scalar tree_4_3_u06_r17_network.node[31].content_store 	decision_no[31] 	8552
scalar tree_4_3_u06_r17_network.node[31].content_store 	decision_ratio[31] 	0.10139749921194
scalar tree_4_3_u06_r17_network.node[32].core_layer 	interests[32] 	14593
scalar tree_4_3_u06_r17_network.node[32].core_layer 	data[32] 	9676
scalar tree_4_3_u06_r17_network.node[32].content_store 	p_hit[32] 	0.33687384362366
scalar tree_4_3_u06_r17_network.node[32].content_store 	hits[32] 	4916
scalar tree_4_3_u06_r17_network.node[32].content_store 	misses[32] 	9677
scalar tree_4_3_u06_r17_network.node[32].content_store 	decision_yes[32] 	1025
scalar tree_4_3_u06_r17_network.node[32].content_store 	decision_no[32] 	8651
scalar tree_4_3_u06_r17_network.node[32].content_store 	decision_ratio[32] 	0.10593220338983
scalar tree_4_3_u06_r17_network.node[33].core_layer 	interests[33] 	13164
scalar tree_4_3_u06_r17_network.node[33].core_layer 	data[33] 	9412
scalar tree_4_3_u06_r17_network.node[33].content_store 	p_hit[33] 	0.28501975083561
scalar tree_4_3_u06_r17_network.node[33].content_store 	hits[33] 	3752
scalar tree_4_3_u06_r17_network.node[33].content_store 	misses[33] 	9412
scalar tree_4_3_u06_r17_network.node[33].content_store 	decision_yes[33] 	970
scalar tree_4_3_u06_r17_network.node[33].content_store 	decision_no[33] 	8442
scalar tree_4_3_u06_r17_network.node[33].content_store 	decision_ratio[33] 	0.10305992350191
scalar tree_4_3_u06_r17_network.node[34].core_layer 	interests[34] 	13353
scalar tree_4_3_u06_r17_network.node[34].core_layer 	data[34] 	9496
scalar tree_4_3_u06_r17_network.node[34].content_store 	p_hit[34] 	0.28884894780199
scalar tree_4_3_u06_r17_network.node[34].content_store 	hits[34] 	3857
scalar tree_4_3_u06_r17_network.node[34].content_store 	misses[34] 	9496
scalar tree_4_3_u06_r17_network.node[34].content_store 	decision_yes[34] 	930
scalar tree_4_3_u06_r17_network.node[34].content_store 	decision_no[34] 	8566
scalar tree_4_3_u06_r17_network.node[34].content_store 	decision_ratio[34] 	0.097935973041281
scalar tree_4_3_u06_r17_network.node[35].core_layer 	interests[35] 	13236
scalar tree_4_3_u06_r17_network.node[35].core_layer 	data[35] 	9423
scalar tree_4_3_u06_r17_network.node[35].content_store 	p_hit[35] 	0.28807796917498
scalar tree_4_3_u06_r17_network.node[35].content_store 	hits[35] 	3813
scalar tree_4_3_u06_r17_network.node[35].content_store 	misses[35] 	9423
scalar tree_4_3_u06_r17_network.node[35].content_store 	decision_yes[35] 	984
scalar tree_4_3_u06_r17_network.node[35].content_store 	decision_no[35] 	8439
scalar tree_4_3_u06_r17_network.node[35].content_store 	decision_ratio[35] 	0.10442534224769
scalar tree_4_3_u06_r17_network.node[36].core_layer 	interests[36] 	14070
scalar tree_4_3_u06_r17_network.node[36].core_layer 	data[36] 	9699
scalar tree_4_3_u06_r17_network.node[36].content_store 	p_hit[36] 	0.31066098081023
scalar tree_4_3_u06_r17_network.node[36].content_store 	hits[36] 	4371
scalar tree_4_3_u06_r17_network.node[36].content_store 	misses[36] 	9699
scalar tree_4_3_u06_r17_network.node[36].content_store 	decision_yes[36] 	970
scalar tree_4_3_u06_r17_network.node[36].content_store 	decision_no[36] 	8729
scalar tree_4_3_u06_r17_network.node[36].content_store 	decision_ratio[36] 	0.10001031034127
scalar tree_4_3_u06_r17_network.node[37].core_layer 	interests[37] 	13121
scalar tree_4_3_u06_r17_network.node[37].core_layer 	data[37] 	9743
scalar tree_4_3_u06_r17_network.node[37].content_store 	p_hit[37] 	0.25737367578691
scalar tree_4_3_u06_r17_network.node[37].content_store 	hits[37] 	3377
scalar tree_4_3_u06_r17_network.node[37].content_store 	misses[37] 	9744
scalar tree_4_3_u06_r17_network.node[37].content_store 	decision_yes[37] 	981
scalar tree_4_3_u06_r17_network.node[37].content_store 	decision_no[37] 	8762
scalar tree_4_3_u06_r17_network.node[37].content_store 	decision_ratio[37] 	0.10068767320127
scalar tree_4_3_u06_r17_network.node[38].core_layer 	interests[38] 	14202
scalar tree_4_3_u06_r17_network.node[38].core_layer 	data[38] 	9656
scalar tree_4_3_u06_r17_network.node[38].content_store 	p_hit[38] 	0.3200957611604
scalar tree_4_3_u06_r17_network.node[38].content_store 	hits[38] 	4546
scalar tree_4_3_u06_r17_network.node[38].content_store 	misses[38] 	9656
scalar tree_4_3_u06_r17_network.node[38].content_store 	decision_yes[38] 	962
scalar tree_4_3_u06_r17_network.node[38].content_store 	decision_no[38] 	8694
scalar tree_4_3_u06_r17_network.node[38].content_store 	decision_ratio[38] 	0.099627174813587
scalar tree_4_3_u06_r17_network.node[39].core_layer 	interests[39] 	12745
scalar tree_4_3_u06_r17_network.node[39].core_layer 	data[39] 	9470
scalar tree_4_3_u06_r17_network.node[39].content_store 	p_hit[39] 	0.25696351510396
scalar tree_4_3_u06_r17_network.node[39].content_store 	hits[39] 	3275
scalar tree_4_3_u06_r17_network.node[39].content_store 	misses[39] 	9470
scalar tree_4_3_u06_r17_network.node[39].content_store 	decision_yes[39] 	905
scalar tree_4_3_u06_r17_network.node[39].content_store 	decision_no[39] 	8565
scalar tree_4_3_u06_r17_network.node[39].content_store 	decision_ratio[39] 	0.095564941921859
scalar tree_4_3_u06_r17_network.client[13] 	hdistance[13] 	2.879248434238
scalar tree_4_3_u06_r17_network.client[13] 	downloads[13] 	11975
scalar tree_4_3_u06_r17_network.client[13] 	avg_time[13] 	0.004548639998
scalar tree_4_3_u06_r17_network.client[14] 	hdistance[14] 	2.8105236949124
scalar tree_4_3_u06_r17_network.client[14] 	downloads[14] 	12049
scalar tree_4_3_u06_r17_network.client[14] 	avg_time[14] 	0.004400196142
scalar tree_4_3_u06_r17_network.client[15] 	hdistance[15] 	2.8915813140145
scalar tree_4_3_u06_r17_network.client[15] 	downloads[15] 	12009
scalar tree_4_3_u06_r17_network.client[15] 	avg_time[15] 	0.004565819276
scalar tree_4_3_u06_r17_network.client[16] 	hdistance[16] 	2.8004300719543
scalar tree_4_3_u06_r17_network.client[16] 	downloads[16] 	12091
scalar tree_4_3_u06_r17_network.client[16] 	avg_time[16] 	0.004382761023
scalar tree_4_3_u06_r17_network.client[17] 	hdistance[17] 	2.8814741035857
scalar tree_4_3_u06_r17_network.client[17] 	downloads[17] 	12048
scalar tree_4_3_u06_r17_network.client[17] 	avg_time[17] 	0.004540335659
scalar tree_4_3_u06_r17_network.client[18] 	hdistance[18] 	2.8753242406493
scalar tree_4_3_u06_r17_network.client[18] 	downloads[18] 	11951
scalar tree_4_3_u06_r17_network.client[18] 	avg_time[18] 	0.00453608221
scalar tree_4_3_u06_r17_network.client[19] 	hdistance[19] 	2.7526872760603
scalar tree_4_3_u06_r17_network.client[19] 	downloads[19] 	12001
scalar tree_4_3_u06_r17_network.client[19] 	avg_time[19] 	0.004377452331
scalar tree_4_3_u06_r17_network.client[20] 	hdistance[20] 	2.7622786501838
scalar tree_4_3_u06_r17_network.client[20] 	downloads[20] 	11972
scalar tree_4_3_u06_r17_network.client[20] 	avg_time[20] 	0.00440811594
scalar tree_4_3_u06_r17_network.client[21] 	hdistance[21] 	2.8627728711881
scalar tree_4_3_u06_r17_network.client[21] 	downloads[21] 	12002
scalar tree_4_3_u06_r17_network.client[21] 	avg_time[21] 	0.004596897503
scalar tree_4_3_u06_r17_network.client[22] 	hdistance[22] 	2.8755029974542
scalar tree_4_3_u06_r17_network.client[22] 	downloads[22] 	12177
scalar tree_4_3_u06_r17_network.client[22] 	avg_time[22] 	0.004553670155
scalar tree_4_3_u06_r17_network.client[23] 	hdistance[23] 	2.9025123111593
scalar tree_4_3_u06_r17_network.client[23] 	downloads[23] 	11981
scalar tree_4_3_u06_r17_network.client[23] 	avg_time[23] 	0.004600948496
scalar tree_4_3_u06_r17_network.client[24] 	hdistance[24] 	2.7795229784759
scalar tree_4_3_u06_r17_network.client[24] 	downloads[24] 	12033
scalar tree_4_3_u06_r17_network.client[24] 	avg_time[24] 	0.004417867193
scalar tree_4_3_u06_r17_network.client[25] 	hdistance[25] 	2.7765714285714
scalar tree_4_3_u06_r17_network.client[25] 	downloads[25] 	12250
scalar tree_4_3_u06_r17_network.client[25] 	avg_time[25] 	0.004370293976
scalar tree_4_3_u06_r17_network.client[26] 	hdistance[26] 	2.8647731036767
scalar tree_4_3_u06_r17_network.client[26] 	downloads[26] 	12076
scalar tree_4_3_u06_r17_network.client[26] 	avg_time[26] 	0.004543554428
scalar tree_4_3_u06_r17_network.client[27] 	hdistance[27] 	2.9058941728064
scalar tree_4_3_u06_r17_network.client[27] 	downloads[27] 	11944
scalar tree_4_3_u06_r17_network.client[27] 	avg_time[27] 	0.004618047943
scalar tree_4_3_u06_r17_network.client[28] 	hdistance[28] 	2.7551612635768
scalar tree_4_3_u06_r17_network.client[28] 	downloads[28] 	12061
scalar tree_4_3_u06_r17_network.client[28] 	avg_time[28] 	0.004388521974
scalar tree_4_3_u06_r17_network.client[29] 	hdistance[29] 	2.7419781673834
scalar tree_4_3_u06_r17_network.client[29] 	downloads[29] 	12092
scalar tree_4_3_u06_r17_network.client[29] 	avg_time[29] 	0.004367678096
scalar tree_4_3_u06_r17_network.client[30] 	hdistance[30] 	2.8156231566529
scalar tree_4_3_u06_r17_network.client[30] 	downloads[30] 	11867
scalar tree_4_3_u06_r17_network.client[30] 	avg_time[30] 	0.004513184885
scalar tree_4_3_u06_r17_network.client[31] 	hdistance[31] 	2.8874194358416
scalar tree_4_3_u06_r17_network.client[31] 	downloads[31] 	11947
scalar tree_4_3_u06_r17_network.client[31] 	avg_time[31] 	0.004639823147
scalar tree_4_3_u06_r17_network.client[32] 	hdistance[32] 	2.7824637439573
scalar tree_4_3_u06_r17_network.client[32] 	downloads[32] 	11998
scalar tree_4_3_u06_r17_network.client[32] 	avg_time[32] 	0.004467007601
scalar tree_4_3_u06_r17_network.client[33] 	hdistance[33] 	2.8474462927359
scalar tree_4_3_u06_r17_network.client[33] 	downloads[33] 	11963
scalar tree_4_3_u06_r17_network.client[33] 	avg_time[33] 	0.004573097373
scalar tree_4_3_u06_r17_network.client[34] 	hdistance[34] 	2.8276063386155
scalar tree_4_3_u06_r17_network.client[34] 	downloads[34] 	11990
scalar tree_4_3_u06_r17_network.client[34] 	avg_time[34] 	0.004527770147
scalar tree_4_3_u06_r17_network.client[35] 	hdistance[35] 	2.8127098723976
scalar tree_4_3_u06_r17_network.client[35] 	downloads[35] 	11912
scalar tree_4_3_u06_r17_network.client[35] 	avg_time[35] 	0.004505705553
scalar tree_4_3_u06_r17_network.client[36] 	hdistance[36] 	2.8014742421733
scalar tree_4_3_u06_r17_network.client[36] 	downloads[36] 	12074
scalar tree_4_3_u06_r17_network.client[36] 	avg_time[36] 	0.004462138755
scalar tree_4_3_u06_r17_network.client[37] 	hdistance[37] 	2.8672443390828
scalar tree_4_3_u06_r17_network.client[37] 	downloads[37] 	12233
scalar tree_4_3_u06_r17_network.client[37] 	avg_time[37] 	0.0045653836
scalar tree_4_3_u06_r17_network.client[38] 	hdistance[38] 	2.7845477907652
scalar tree_4_3_u06_r17_network.client[38] 	downloads[38] 	12063
scalar tree_4_3_u06_r17_network.client[38] 	avg_time[38] 	0.004434383095
scalar tree_4_3_u06_r17_network.client[39] 	hdistance[39] 	2.8489727463312
scalar tree_4_3_u06_r17_network.client[39] 	downloads[39] 	11925
scalar tree_4_3_u06_r17_network.client[39] 	avg_time[39] 	0.004527963501
