version 2
run General-68-20160825-21:16:03-3010
attr D tfc
attr F nrr
attr R lru
attr a 0.9
attr configname General
attr datetime 20160825-21:16:03
attr experiment General
attr inifile hw5115/scenario_C/omnetp.ini
attr iterationvars "$net=level3, $rep=8, $a=0.9, $F=nrr, $D=tfc, $R=lru, $window=60, $variance=0.05, $mytime=600"
attr iterationvars2 "$net=level3, $rep=8, $a=0.9, $F=nrr, $D=tfc, $R=lru, $window=60, $variance=0.05, $mytime=600, $repetition=0"
attr measurement "$net=level3, $rep=8, $a=0.9, $F=nrr, $D=tfc, $R=lru, $window=60, $variance=0.05, $mytime=600"
attr mytime 600
attr net level3
attr network networks.${net=level3}_network
attr processid 3010
attr rep 8
attr repetition 0
attr replication #0
attr resultdir results
attr runnumber 68
attr seedset 8
attr variance 0.05
attr window 60

scalar . 	a 	0.9
scalar . 	mytime 	600
scalar . 	rep 	8
scalar . 	variance 	0.05
scalar . 	window 	60
scalar level3_network.content_distribution 	repo-0 	4
scalar level3_network.content_distribution 	repo-1 	26
scalar level3_network.content_distribution 	repo-2 	15
scalar level3_network.content_distribution 	repo-3 	23
scalar level3_network.content_distribution 	repo-4 	44
scalar level3_network.content_distribution 	repo-5 	8
scalar level3_network.content_distribution 	repo-6 	28
scalar level3_network.content_distribution 	repo-7 	25
scalar level3_network.content_distribution 	repo-8 	31
scalar level3_network.content_distribution 	repo-9 	5
scalar level3_network.content_distribution 	repo-10 	1
scalar level3_network.content_distribution 	repo-11 	39
scalar level3_network.content_distribution 	repo-12 	3
scalar level3_network.content_distribution 	repo-13 	24
scalar level3_network.content_distribution 	repo-14 	20
scalar level3_network.content_distribution 	repo-15 	45
scalar level3_network.content_distribution 	client-0 	21
scalar level3_network.content_distribution 	client-1 	9
scalar level3_network.content_distribution 	client-2 	38
scalar level3_network.content_distribution 	client-3 	2
scalar level3_network.content_distribution 	client-4 	30
scalar level3_network.content_distribution 	client-5 	8
scalar level3_network.content_distribution 	client-6 	23
scalar level3_network.content_distribution 	client-7 	32
scalar level3_network.content_distribution 	client-8 	40
scalar level3_network.content_distribution 	client-9 	42
scalar level3_network.content_distribution 	client-10 	45
scalar level3_network.content_distribution 	client-11 	33
scalar level3_network.content_distribution 	client-12 	28
scalar level3_network.content_distribution 	client-13 	3
scalar level3_network.content_distribution 	client-14 	15
scalar level3_network.content_distribution 	client-15 	34
scalar level3_network.content_distribution 	client-16 	31
scalar level3_network.content_distribution 	client-17 	17
scalar level3_network.content_distribution 	client-18 	25
scalar level3_network.content_distribution 	client-19 	12
scalar level3_network.content_distribution 	client-20 	22
scalar level3_network.content_distribution 	client-21 	11
scalar level3_network.content_distribution 	client-22 	6
scalar level3_network.content_distribution 	client-23 	39
scalar level3_network.content_distribution 	client-24 	7
scalar level3_network.content_distribution 	client-25 	18
scalar level3_network.content_distribution 	client-26 	36
scalar level3_network.content_distribution 	client-27 	27
scalar level3_network.content_distribution 	client-28 	43
scalar level3_network.content_distribution 	client-29 	37
scalar level3_network.content_distribution 	client-30 	4
scalar level3_network.content_distribution 	client-31 	14
scalar level3_network.content_distribution 	repo-0_card 	6204
scalar level3_network.content_distribution 	repo-0_price 	0
scalar level3_network.content_distribution 	repo-1_card 	6317
scalar level3_network.content_distribution 	repo-1_price 	0
scalar level3_network.content_distribution 	repo-2_card 	6111
scalar level3_network.content_distribution 	repo-2_price 	0
scalar level3_network.content_distribution 	repo-3_card 	6351
scalar level3_network.content_distribution 	repo-3_price 	0
scalar level3_network.content_distribution 	repo-4_card 	6338
scalar level3_network.content_distribution 	repo-4_price 	0
scalar level3_network.content_distribution 	repo-5_card 	6223
scalar level3_network.content_distribution 	repo-5_price 	0
scalar level3_network.content_distribution 	repo-6_card 	6196
scalar level3_network.content_distribution 	repo-6_price 	0
scalar level3_network.content_distribution 	repo-7_card 	6310
scalar level3_network.content_distribution 	repo-7_price 	0
scalar level3_network.content_distribution 	repo-8_card 	6323
scalar level3_network.content_distribution 	repo-8_price 	0
scalar level3_network.content_distribution 	repo-9_card 	6231
scalar level3_network.content_distribution 	repo-9_price 	0
scalar level3_network.content_distribution 	repo-10_card 	6186
scalar level3_network.content_distribution 	repo-10_price 	0
scalar level3_network.content_distribution 	repo-11_card 	6137
scalar level3_network.content_distribution 	repo-11_price 	0
scalar level3_network.content_distribution 	repo-12_card 	6315
scalar level3_network.content_distribution 	repo-12_price 	0
scalar level3_network.content_distribution 	repo-13_card 	6325
scalar level3_network.content_distribution 	repo-13_price 	0
scalar level3_network.content_distribution 	repo-14_card 	6116
scalar level3_network.content_distribution 	repo-14_price 	0
scalar level3_network.content_distribution 	repo-15_card 	6317
scalar level3_network.content_distribution 	repo-15_price 	0
scalar level3_network.statistics 	stabilization_time 	4542
scalar level3_network.statistics 	p_hit 	0.2696203276587
scalar level3_network.statistics 	interests 	19405.369565217
scalar level3_network.statistics 	data 	11036.108695652
scalar level3_network.statistics 	hdistance 	1.8258332795289
scalar level3_network.statistics 	avg_time 	0.033510445698
scalar level3_network.statistics 	downloads 	384958
scalar level3_network.statistics 	total_cost 	0
scalar level3_network.statistics 	total_replicas 	100000
scalar level3_network.statistics 	inner_hit 	0.49325900487845
scalar level3_network.node[0].core_layer 	interests[0] 	1699
scalar level3_network.node[0].core_layer 	data[0] 	374
scalar level3_network.node[0].core_layer 	repo_int[0] 	195074
scalar level3_network.node[0].content_store 	p_hit[0] 	0.77987051206592
scalar level3_network.node[0].content_store 	hits[0] 	1325
scalar level3_network.node[0].content_store 	misses[0] 	374
scalar level3_network.node[0].content_store 	decision_yes[0] 	9
scalar level3_network.node[0].content_store 	decision_no[0] 	365
scalar level3_network.node[0].content_store 	decision_ratio[0] 	0.024064171122995
scalar level3_network.node[1].core_layer 	interests[1] 	11820
scalar level3_network.node[1].core_layer 	repo_load[1] 	10498
scalar level3_network.node[1].core_layer 	data[1] 	0
scalar level3_network.node[1].content_store 	p_hit[1] 	0.11184433164129
scalar level3_network.node[1].content_store 	hits[1] 	1322
scalar level3_network.node[1].content_store 	misses[1] 	10498
scalar level3_network.node[1].content_store 	decision_yes[1] 	423
scalar level3_network.node[1].content_store 	decision_no[1] 	10075
scalar level3_network.node[1].content_store 	decision_ratio[1] 	0.040293389216994
scalar level3_network.node[2].core_layer 	interests[2] 	40986
scalar level3_network.node[2].core_layer 	data[2] 	35663
scalar level3_network.node[2].content_store 	p_hit[2] 	0.12982481823062
scalar level3_network.node[2].content_store 	hits[2] 	5321
scalar level3_network.node[2].content_store 	misses[2] 	35665
scalar level3_network.node[2].content_store 	decision_yes[2] 	395
scalar level3_network.node[2].content_store 	decision_no[2] 	35268
scalar level3_network.node[2].content_store 	decision_ratio[2] 	0.011075904999579
scalar level3_network.node[3].core_layer 	interests[3] 	48005
scalar level3_network.node[3].core_layer 	repo_load[3] 	13455
scalar level3_network.node[3].core_layer 	data[3] 	28941
scalar level3_network.node[3].content_store 	p_hit[3] 	0.11669617748151
scalar level3_network.node[3].content_store 	hits[3] 	5602
scalar level3_network.node[3].content_store 	misses[3] 	42403
scalar level3_network.node[3].content_store 	decision_yes[3] 	414
scalar level3_network.node[3].content_store 	decision_no[3] 	41982
scalar level3_network.node[3].content_store 	decision_ratio[3] 	0.0097650721766204
scalar level3_network.node[4].core_layer 	interests[4] 	25821
scalar level3_network.node[4].core_layer 	repo_load[4] 	12466
scalar level3_network.node[4].core_layer 	data[4] 	8897
scalar level3_network.node[4].content_store 	p_hit[4] 	0.17265016846753
scalar level3_network.node[4].content_store 	hits[4] 	4458
scalar level3_network.node[4].content_store 	misses[4] 	21363
scalar level3_network.node[4].content_store 	decision_yes[4] 	473
scalar level3_network.node[4].content_store 	decision_no[4] 	20890
scalar level3_network.node[4].content_store 	decision_ratio[4] 	0.022141085053597
scalar level3_network.node[5].core_layer 	interests[5] 	16311
scalar level3_network.node[5].core_layer 	repo_load[5] 	11711
scalar level3_network.node[5].core_layer 	data[5] 	1693
scalar level3_network.node[5].content_store 	p_hit[5] 	0.17822328489976
scalar level3_network.node[5].content_store 	hits[5] 	2907
scalar level3_network.node[5].content_store 	misses[5] 	13404
scalar level3_network.node[5].content_store 	decision_yes[5] 	516
scalar level3_network.node[5].content_store 	decision_no[5] 	12888
scalar level3_network.node[5].content_store 	decision_ratio[5] 	0.038495971351835
scalar level3_network.node[6].core_layer 	interests[6] 	12858
scalar level3_network.node[6].core_layer 	data[6] 	8665
scalar level3_network.node[6].content_store 	p_hit[6] 	0.32610048219008
scalar level3_network.node[6].content_store 	hits[6] 	4193
scalar level3_network.node[6].content_store 	misses[6] 	8665
scalar level3_network.node[6].content_store 	decision_yes[6] 	82
scalar level3_network.node[6].content_store 	decision_no[6] 	8583
scalar level3_network.node[6].content_store 	decision_ratio[6] 	0.009463358338142
scalar level3_network.node[7].core_layer 	interests[7] 	111975
scalar level3_network.node[7].core_layer 	data[7] 	103548
scalar level3_network.node[7].content_store 	p_hit[7] 	0.074972091984818
scalar level3_network.node[7].content_store 	hits[7] 	8395
scalar level3_network.node[7].content_store 	misses[7] 	103580
scalar level3_network.node[7].content_store 	decision_yes[7] 	726
scalar level3_network.node[7].content_store 	decision_no[7] 	102822
scalar level3_network.node[7].content_store 	decision_ratio[7] 	0.0070112411635184
scalar level3_network.node[8].core_layer 	interests[8] 	42389
scalar level3_network.node[8].core_layer 	repo_load[8] 	13865
scalar level3_network.node[8].core_layer 	data[8] 	20437
scalar level3_network.node[8].content_store 	p_hit[8] 	0.19068626294558
scalar level3_network.node[8].content_store 	hits[8] 	8083
scalar level3_network.node[8].content_store 	misses[8] 	34306
scalar level3_network.node[8].content_store 	decision_yes[8] 	569
scalar level3_network.node[8].content_store 	decision_no[8] 	33733
scalar level3_network.node[8].content_store 	decision_ratio[8] 	0.016587954055157
scalar level3_network.node[9].core_layer 	interests[9] 	15873
scalar level3_network.node[9].core_layer 	data[9] 	8978
scalar level3_network.node[9].content_store 	p_hit[9] 	0.43432243432243
scalar level3_network.node[9].content_store 	hits[9] 	6894
scalar level3_network.node[9].content_store 	misses[9] 	8979
scalar level3_network.node[9].content_store 	decision_yes[9] 	138
scalar level3_network.node[9].content_store 	decision_no[9] 	8840
scalar level3_network.node[9].content_store 	decision_ratio[9] 	0.015370906660726
scalar level3_network.node[10].core_layer 	interests[10] 	0
scalar level3_network.node[10].core_layer 	data[10] 	0
scalar level3_network.node[10].content_store 	p_hit[10] 	-nan
scalar level3_network.node[10].content_store 	hits[10] 	0
scalar level3_network.node[10].content_store 	misses[10] 	0
scalar level3_network.node[10].content_store 	decision_yes[10] 	0
scalar level3_network.node[10].content_store 	decision_no[10] 	0
scalar level3_network.node[10].content_store 	decision_ratio[10] 	0
scalar level3_network.node[11].core_layer 	interests[11] 	73274
scalar level3_network.node[11].core_layer 	data[11] 	63290
scalar level3_network.node[11].content_store 	p_hit[11] 	0.13565521194421
scalar level3_network.node[11].content_store 	hits[11] 	9940
scalar level3_network.node[11].content_store 	misses[11] 	63334
scalar level3_network.node[11].content_store 	decision_yes[11] 	419
scalar level3_network.node[11].content_store 	decision_no[11] 	62871
scalar level3_network.node[11].content_store 	decision_ratio[11] 	0.006620319165745
scalar level3_network.node[12].core_layer 	interests[12] 	13595
scalar level3_network.node[12].core_layer 	data[12] 	8941
scalar level3_network.node[12].content_store 	p_hit[12] 	0.34233173961015
scalar level3_network.node[12].content_store 	hits[12] 	4654
scalar level3_network.node[12].content_store 	misses[12] 	8941
scalar level3_network.node[12].content_store 	decision_yes[12] 	115
scalar level3_network.node[12].content_store 	decision_no[12] 	8826
scalar level3_network.node[12].content_store 	decision_ratio[12] 	0.01286209596242
scalar level3_network.node[13].core_layer 	interests[13] 	0
scalar level3_network.node[13].core_layer 	data[13] 	0
scalar level3_network.node[13].content_store 	p_hit[13] 	-nan
scalar level3_network.node[13].content_store 	hits[13] 	0
scalar level3_network.node[13].content_store 	misses[13] 	0
scalar level3_network.node[13].content_store 	decision_yes[13] 	0
scalar level3_network.node[13].content_store 	decision_no[13] 	0
scalar level3_network.node[13].content_store 	decision_ratio[13] 	0
scalar level3_network.node[14].core_layer 	interests[14] 	13677
scalar level3_network.node[14].core_layer 	data[14] 	8825
scalar level3_network.node[14].content_store 	p_hit[14] 	0.35468304452731
scalar level3_network.node[14].content_store 	hits[14] 	4851
scalar level3_network.node[14].content_store 	misses[14] 	8826
scalar level3_network.node[14].content_store 	decision_yes[14] 	70
scalar level3_network.node[14].content_store 	decision_no[14] 	8755
scalar level3_network.node[14].content_store 	decision_ratio[14] 	0.0079320113314448
scalar level3_network.node[15].core_layer 	interests[15] 	25826
scalar level3_network.node[15].core_layer 	repo_load[15] 	12090
scalar level3_network.node[15].core_layer 	data[15] 	8989
scalar level3_network.node[15].content_store 	p_hit[15] 	0.18372957484705
scalar level3_network.node[15].content_store 	hits[15] 	4745
scalar level3_network.node[15].content_store 	misses[15] 	21081
scalar level3_network.node[15].content_store 	decision_yes[15] 	483
scalar level3_network.node[15].content_store 	decision_no[15] 	20596
scalar level3_network.node[15].content_store 	decision_ratio[15] 	0.022913800464918
scalar level3_network.node[16].core_layer 	interests[16] 	0
scalar level3_network.node[16].core_layer 	data[16] 	0
scalar level3_network.node[16].content_store 	p_hit[16] 	-nan
scalar level3_network.node[16].content_store 	hits[16] 	0
scalar level3_network.node[16].content_store 	misses[16] 	0
scalar level3_network.node[16].content_store 	decision_yes[16] 	0
scalar level3_network.node[16].content_store 	decision_no[16] 	0
scalar level3_network.node[16].content_store 	decision_ratio[16] 	0
scalar level3_network.node[17].core_layer 	interests[17] 	19066
scalar level3_network.node[17].core_layer 	data[17] 	8774
scalar level3_network.node[17].content_store 	p_hit[17] 	0.53959928668835
scalar level3_network.node[17].content_store 	hits[17] 	10288
scalar level3_network.node[17].content_store 	misses[17] 	8778
scalar level3_network.node[17].content_store 	decision_yes[17] 	165
scalar level3_network.node[17].content_store 	decision_no[17] 	8609
scalar level3_network.node[17].content_store 	decision_ratio[17] 	0.018805561887395
scalar level3_network.node[18].core_layer 	interests[18] 	35477
scalar level3_network.node[18].core_layer 	data[18] 	23671
scalar level3_network.node[18].content_store 	p_hit[18] 	0.33252529808045
scalar level3_network.node[18].content_store 	hits[18] 	11797
scalar level3_network.node[18].content_store 	misses[18] 	23680
scalar level3_network.node[18].content_store 	decision_yes[18] 	311
scalar level3_network.node[18].content_store 	decision_no[18] 	23360
scalar level3_network.node[18].content_store 	decision_ratio[18] 	0.013138439440666
scalar level3_network.node[19].core_layer 	interests[19] 	0
scalar level3_network.node[19].core_layer 	data[19] 	0
scalar level3_network.node[19].content_store 	p_hit[19] 	-nan
scalar level3_network.node[19].content_store 	hits[19] 	0
scalar level3_network.node[19].content_store 	misses[19] 	0
scalar level3_network.node[19].content_store 	decision_yes[19] 	0
scalar level3_network.node[19].content_store 	decision_no[19] 	0
scalar level3_network.node[19].content_store 	decision_ratio[19] 	0
scalar level3_network.node[20].core_layer 	interests[20] 	13233
scalar level3_network.node[20].core_layer 	repo_load[20] 	11469
scalar level3_network.node[20].core_layer 	data[20] 	0
scalar level3_network.node[20].content_store 	p_hit[20] 	0.13330310587168
scalar level3_network.node[20].content_store 	hits[20] 	1764
scalar level3_network.node[20].content_store 	misses[20] 	11469
scalar level3_network.node[20].content_store 	decision_yes[20] 	528
scalar level3_network.node[20].content_store 	decision_no[20] 	10941
scalar level3_network.node[20].content_store 	decision_ratio[20] 	0.046037143604499
scalar level3_network.node[21].core_layer 	interests[21] 	12831
scalar level3_network.node[21].core_layer 	data[21] 	8678
scalar level3_network.node[21].content_store 	p_hit[21] 	0.32382511105915
scalar level3_network.node[21].content_store 	hits[21] 	4155
scalar level3_network.node[21].content_store 	misses[21] 	8676
scalar level3_network.node[21].content_store 	decision_yes[21] 	20
scalar level3_network.node[21].content_store 	decision_no[21] 	8658
scalar level3_network.node[21].content_store 	decision_ratio[21] 	0.0023046784973496
scalar level3_network.node[22].core_layer 	interests[22] 	13690
scalar level3_network.node[22].core_layer 	data[22] 	8852
scalar level3_network.node[22].content_store 	p_hit[22] 	0.35346968590212
scalar level3_network.node[22].content_store 	hits[22] 	4839
scalar level3_network.node[22].content_store 	misses[22] 	8851
scalar level3_network.node[22].content_store 	decision_yes[22] 	107
scalar level3_network.node[22].content_store 	decision_no[22] 	8745
scalar level3_network.node[22].content_store 	decision_ratio[22] 	0.01208766380479
scalar level3_network.node[23].core_layer 	interests[23] 	26305
scalar level3_network.node[23].core_layer 	repo_load[23] 	12677
scalar level3_network.node[23].core_layer 	data[23] 	8912
scalar level3_network.node[23].content_store 	p_hit[23] 	0.17928150541722
scalar level3_network.node[23].content_store 	hits[23] 	4716
scalar level3_network.node[23].content_store 	misses[23] 	21589
scalar level3_network.node[23].content_store 	decision_yes[23] 	528
scalar level3_network.node[23].content_store 	decision_no[23] 	21061
scalar level3_network.node[23].content_store 	decision_ratio[23] 	0.02445689934689
scalar level3_network.node[24].core_layer 	interests[24] 	14387
scalar level3_network.node[24].core_layer 	repo_load[24] 	11942
scalar level3_network.node[24].core_layer 	data[24] 	0
scalar level3_network.node[24].content_store 	p_hit[24] 	0.16994508931674
scalar level3_network.node[24].content_store 	hits[24] 	2445
scalar level3_network.node[24].content_store 	misses[24] 	11942
scalar level3_network.node[24].content_store 	decision_yes[24] 	551
scalar level3_network.node[24].content_store 	decision_no[24] 	11391
scalar level3_network.node[24].content_store 	decision_ratio[24] 	0.046139675096299
scalar level3_network.node[25].core_layer 	interests[25] 	25051
scalar level3_network.node[25].core_layer 	repo_load[25] 	11978
scalar level3_network.node[25].core_layer 	data[25] 	8901
scalar level3_network.node[25].content_store 	p_hit[25] 	0.16650033930781
scalar level3_network.node[25].content_store 	hits[25] 	4171
scalar level3_network.node[25].content_store 	misses[25] 	20880
scalar level3_network.node[25].content_store 	decision_yes[25] 	423
scalar level3_network.node[25].content_store 	decision_no[25] 	20456
scalar level3_network.node[25].content_store 	decision_ratio[25] 	0.020259590976579
scalar level3_network.node[26].core_layer 	interests[26] 	14239
scalar level3_network.node[26].core_layer 	repo_load[26] 	11600
scalar level3_network.node[26].core_layer 	data[26] 	0
scalar level3_network.node[26].content_store 	p_hit[26] 	0.18533604887984
scalar level3_network.node[26].content_store 	hits[26] 	2639
scalar level3_network.node[26].content_store 	misses[26] 	11600
scalar level3_network.node[26].content_store 	decision_yes[26] 	528
scalar level3_network.node[26].content_store 	decision_no[26] 	11072
scalar level3_network.node[26].content_store 	decision_ratio[26] 	0.04551724137931
scalar level3_network.node[27].core_layer 	interests[27] 	13529
scalar level3_network.node[27].core_layer 	data[27] 	8828
scalar level3_network.node[27].content_store 	p_hit[27] 	0.34732796215537
scalar level3_network.node[27].content_store 	hits[27] 	4699
scalar level3_network.node[27].content_store 	misses[27] 	8830
scalar level3_network.node[27].content_store 	decision_yes[27] 	103
scalar level3_network.node[27].content_store 	decision_no[27] 	8725
scalar level3_network.node[27].content_store 	decision_ratio[27] 	0.011667421839601
scalar level3_network.node[28].core_layer 	interests[28] 	25632
scalar level3_network.node[28].core_layer 	repo_load[28] 	12027
scalar level3_network.node[28].core_layer 	data[28] 	8965
scalar level3_network.node[28].content_store 	p_hit[28] 	0.18090667915106
scalar level3_network.node[28].content_store 	hits[28] 	4637
scalar level3_network.node[28].content_store 	misses[28] 	20995
scalar level3_network.node[28].content_store 	decision_yes[28] 	464
scalar level3_network.node[28].content_store 	decision_no[28] 	20528
scalar level3_network.node[28].content_store 	decision_ratio[28] 	0.022103658536585
scalar level3_network.node[29].core_layer 	interests[29] 	0
scalar level3_network.node[29].core_layer 	data[29] 	0
scalar level3_network.node[29].content_store 	p_hit[29] 	-nan
scalar level3_network.node[29].content_store 	hits[29] 	0
scalar level3_network.node[29].content_store 	misses[29] 	0
scalar level3_network.node[29].content_store 	decision_yes[29] 	0
scalar level3_network.node[29].content_store 	decision_no[29] 	0
scalar level3_network.node[29].content_store 	decision_ratio[29] 	0
scalar level3_network.node[30].core_layer 	interests[30] 	13825
scalar level3_network.node[30].core_layer 	data[30] 	8996
scalar level3_network.node[30].content_store 	p_hit[30] 	0.34922242314647
scalar level3_network.node[30].content_store 	hits[30] 	4828
scalar level3_network.node[30].content_store 	misses[30] 	8997
scalar level3_network.node[30].content_store 	decision_yes[30] 	115
scalar level3_network.node[30].content_store 	decision_no[30] 	8881
scalar level3_network.node[30].content_store 	decision_ratio[30] 	0.012783459315251
scalar level3_network.node[31].core_layer 	interests[31] 	26171
scalar level3_network.node[31].core_layer 	repo_load[31] 	12755
scalar level3_network.node[31].core_layer 	data[31] 	8883
scalar level3_network.node[31].content_store 	p_hit[31] 	0.17313056436514
scalar level3_network.node[31].content_store 	hits[31] 	4531
scalar level3_network.node[31].content_store 	misses[31] 	21640
scalar level3_network.node[31].content_store 	decision_yes[31] 	477
scalar level3_network.node[31].content_store 	decision_no[31] 	21161
scalar level3_network.node[31].content_store 	decision_ratio[31] 	0.022044551252426
scalar level3_network.node[32].core_layer 	interests[32] 	13701
scalar level3_network.node[32].core_layer 	data[32] 	8920
scalar level3_network.node[32].content_store 	p_hit[32] 	0.34887964382162
scalar level3_network.node[32].content_store 	hits[32] 	4780
scalar level3_network.node[32].content_store 	misses[32] 	8921
scalar level3_network.node[32].content_store 	decision_yes[32] 	110
scalar level3_network.node[32].content_store 	decision_no[32] 	8810
scalar level3_network.node[32].content_store 	decision_ratio[32] 	0.012331838565022
scalar level3_network.node[33].core_layer 	interests[33] 	13350
scalar level3_network.node[33].core_layer 	data[33] 	8787
scalar level3_network.node[33].content_store 	p_hit[33] 	0.34157303370787
scalar level3_network.node[33].content_store 	hits[33] 	4560
scalar level3_network.node[33].content_store 	misses[33] 	8790
scalar level3_network.node[33].content_store 	decision_yes[33] 	128
scalar level3_network.node[33].content_store 	decision_no[33] 	8659
scalar level3_network.node[33].content_store 	decision_ratio[33] 	0.014566973938773
scalar level3_network.node[34].core_layer 	interests[34] 	13458
scalar level3_network.node[34].core_layer 	data[34] 	8761
scalar level3_network.node[34].content_store 	p_hit[34] 	0.34893743498291
scalar level3_network.node[34].content_store 	hits[34] 	4696
scalar level3_network.node[34].content_store 	misses[34] 	8762
scalar level3_network.node[34].content_store 	decision_yes[34] 	97
scalar level3_network.node[34].content_store 	decision_no[34] 	8664
scalar level3_network.node[34].content_store 	decision_ratio[34] 	0.01107179545714
scalar level3_network.node[35].core_layer 	interests[35] 	0
scalar level3_network.node[35].core_layer 	data[35] 	0
scalar level3_network.node[35].content_store 	p_hit[35] 	-nan
scalar level3_network.node[35].content_store 	hits[35] 	0
scalar level3_network.node[35].content_store 	misses[35] 	0
scalar level3_network.node[35].content_store 	decision_yes[35] 	0
scalar level3_network.node[35].content_store 	decision_no[35] 	0
scalar level3_network.node[35].content_store 	decision_ratio[35] 	0
scalar level3_network.node[36].core_layer 	interests[36] 	13304
scalar level3_network.node[36].core_layer 	data[36] 	8782
scalar level3_network.node[36].content_store 	p_hit[36] 	0.33982260974143
scalar level3_network.node[36].content_store 	hits[36] 	4521
scalar level3_network.node[36].content_store 	misses[36] 	8783
scalar level3_network.node[36].content_store 	decision_yes[36] 	98
scalar level3_network.node[36].content_store 	decision_no[36] 	8684
scalar level3_network.node[36].content_store 	decision_ratio[36] 	0.01115918925074
scalar level3_network.node[37].core_layer 	interests[37] 	13408
scalar level3_network.node[37].core_layer 	data[37] 	8786
scalar level3_network.node[37].content_store 	p_hit[37] 	0.34486873508353
scalar level3_network.node[37].content_store 	hits[37] 	4624
scalar level3_network.node[37].content_store 	misses[37] 	8784
scalar level3_network.node[37].content_store 	decision_yes[37] 	88
scalar level3_network.node[37].content_store 	decision_no[37] 	8698
scalar level3_network.node[37].content_store 	decision_ratio[37] 	0.010015934441156
scalar level3_network.node[38].core_layer 	interests[38] 	13425
scalar level3_network.node[38].core_layer 	data[38] 	8740
scalar level3_network.node[38].content_store 	p_hit[38] 	0.34890130353818
scalar level3_network.node[38].content_store 	hits[38] 	4684
scalar level3_network.node[38].content_store 	misses[38] 	8741
scalar level3_network.node[38].content_store 	decision_yes[38] 	114
scalar level3_network.node[38].content_store 	decision_no[38] 	8626
scalar level3_network.node[38].content_store 	decision_ratio[38] 	0.01304347826087
scalar level3_network.node[39].core_layer 	interests[39] 	26012
scalar level3_network.node[39].core_layer 	repo_load[39] 	12394
scalar level3_network.node[39].core_layer 	data[39] 	8863
scalar level3_network.node[39].content_store 	p_hit[39] 	0.18283868983546
scalar level3_network.node[39].content_store 	hits[39] 	4756
scalar level3_network.node[39].content_store 	misses[39] 	21256
scalar level3_network.node[39].content_store 	decision_yes[39] 	495
scalar level3_network.node[39].content_store 	decision_no[39] 	20762
scalar level3_network.node[39].content_store 	decision_ratio[39] 	0.023286446817519
scalar level3_network.node[40].core_layer 	interests[40] 	12390
scalar level3_network.node[40].core_layer 	data[40] 	8741
scalar level3_network.node[40].content_store 	p_hit[40] 	0.29451170298628
scalar level3_network.node[40].content_store 	hits[40] 	3649
scalar level3_network.node[40].content_store 	misses[40] 	8741
scalar level3_network.node[40].content_store 	decision_yes[40] 	35
scalar level3_network.node[40].content_store 	decision_no[40] 	8706
scalar level3_network.node[40].content_store 	decision_ratio[40] 	0.0040041185219082
scalar level3_network.node[41].core_layer 	interests[41] 	0
scalar level3_network.node[41].core_layer 	data[41] 	0
scalar level3_network.node[41].content_store 	p_hit[41] 	-nan
scalar level3_network.node[41].content_store 	hits[41] 	0
scalar level3_network.node[41].content_store 	misses[41] 	0
scalar level3_network.node[41].content_store 	decision_yes[41] 	0
scalar level3_network.node[41].content_store 	decision_no[41] 	0
scalar level3_network.node[41].content_store 	decision_ratio[41] 	0
scalar level3_network.node[42].core_layer 	interests[42] 	13634
scalar level3_network.node[42].core_layer 	data[42] 	8906
scalar level3_network.node[42].content_store 	p_hit[42] 	0.34678010855215
scalar level3_network.node[42].content_store 	hits[42] 	4728
scalar level3_network.node[42].content_store 	misses[42] 	8906
scalar level3_network.node[42].content_store 	decision_yes[42] 	67
scalar level3_network.node[42].content_store 	decision_no[42] 	8839
scalar level3_network.node[42].content_store 	decision_ratio[42] 	0.0075230181899843
scalar level3_network.node[43].core_layer 	interests[43] 	13002
scalar level3_network.node[43].core_layer 	data[43] 	8682
scalar level3_network.node[43].content_store 	p_hit[43] 	0.3322565759114
scalar level3_network.node[43].content_store 	hits[43] 	4320
scalar level3_network.node[43].content_store 	misses[43] 	8682
scalar level3_network.node[43].content_store 	decision_yes[43] 	25
scalar level3_network.node[43].content_store 	decision_no[43] 	8657
scalar level3_network.node[43].content_store 	decision_ratio[43] 	0.0028795208477309
scalar level3_network.node[44].core_layer 	interests[44] 	13863
scalar level3_network.node[44].core_layer 	repo_load[44] 	11609
scalar level3_network.node[44].core_layer 	data[44] 	0
scalar level3_network.node[44].content_store 	p_hit[44] 	0.16259106975402
scalar level3_network.node[44].content_store 	hits[44] 	2254
scalar level3_network.node[44].content_store 	misses[44] 	11609
scalar level3_network.node[44].content_store 	decision_yes[44] 	534
scalar level3_network.node[44].content_store 	decision_no[44] 	11075
scalar level3_network.node[44].content_store 	decision_ratio[44] 	0.045998794039108
scalar level3_network.node[45].core_layer 	interests[45] 	25555
scalar level3_network.node[45].core_layer 	repo_load[45] 	12538
scalar level3_network.node[45].core_layer 	data[45] 	8992
scalar level3_network.node[45].content_store 	p_hit[45] 	0.1572686362747
scalar level3_network.node[45].content_store 	hits[45] 	4019
scalar level3_network.node[45].content_store 	misses[45] 	21536
scalar level3_network.node[45].content_store 	decision_yes[45] 	431
scalar level3_network.node[45].content_store 	decision_no[45] 	21099
scalar level3_network.node[45].content_store 	decision_ratio[45] 	0.020018578727357
scalar level3_network.client[2] 	hdistance[2] 	1.737877781468
scalar level3_network.client[2] 	downloads[2] 	12044
scalar level3_network.client[2] 	avg_time[2] 	0.038679536417
scalar level3_network.client[3] 	hdistance[3] 	1.6699681047507
scalar level3_network.client[3] 	downloads[3] 	11914
scalar level3_network.client[3] 	avg_time[3] 	0.038856927936
scalar level3_network.client[4] 	hdistance[4] 	1.861673414305
scalar level3_network.client[4] 	downloads[4] 	11856
scalar level3_network.client[4] 	avg_time[4] 	0.040291651854
scalar level3_network.client[6] 	hdistance[6] 	1.8665217027683
scalar level3_network.client[6] 	downloads[6] 	11957
scalar level3_network.client[6] 	avg_time[6] 	0.028318509445
scalar level3_network.client[7] 	hdistance[7] 	1.5025683512842
scalar level3_network.client[7] 	downloads[7] 	12070
scalar level3_network.client[7] 	avg_time[7] 	0.024481172149
scalar level3_network.client[8] 	hdistance[8] 	1.5557295960429
scalar level3_network.client[8] 	downloads[8] 	12130
scalar level3_network.client[8] 	avg_time[8] 	0.02735051711
scalar level3_network.client[9] 	hdistance[9] 	1.7214473252379
scalar level3_network.client[9] 	downloads[9] 	12188
scalar level3_network.client[9] 	avg_time[9] 	0.030124562443
scalar level3_network.client[11] 	hdistance[11] 	1.4059765560509
scalar level3_network.client[11] 	downloads[11] 	12114
scalar level3_network.client[11] 	avg_time[11] 	0.025285933395
scalar level3_network.client[12] 	hdistance[12] 	1.8522455706634
scalar level3_network.client[12] 	downloads[12] 	12135
scalar level3_network.client[12] 	avg_time[12] 	0.038052151739
scalar level3_network.client[14] 	hdistance[14] 	1.8556052326544
scalar level3_network.client[14] 	downloads[14] 	12078
scalar level3_network.client[14] 	avg_time[14] 	0.026741180387
scalar level3_network.client[15] 	hdistance[15] 	1.8370076789695
scalar level3_network.client[15] 	downloads[15] 	12111
scalar level3_network.client[15] 	avg_time[15] 	0.040112395409
scalar level3_network.client[17] 	hdistance[17] 	1.4155419565764
scalar level3_network.client[17] 	downloads[17] 	11929
scalar level3_network.client[17] 	avg_time[17] 	0.033476410031
scalar level3_network.client[18] 	hdistance[18] 	1.3527607361963
scalar level3_network.client[18] 	downloads[18] 	12062
scalar level3_network.client[18] 	avg_time[18] 	0.024258087725
scalar level3_network.client[21] 	hdistance[21] 	2.2649337665584
scalar level3_network.client[21] 	downloads[21] 	12003
scalar level3_network.client[21] 	avg_time[21] 	0.03936670151
scalar level3_network.client[22] 	hdistance[22] 	1.8816892060068
scalar level3_network.client[22] 	downloads[22] 	12053
scalar level3_network.client[22] 	avg_time[22] 	0.028474219647
scalar level3_network.client[23] 	hdistance[23] 	1.8762955533266
scalar level3_network.client[23] 	downloads[23] 	11964
scalar level3_network.client[23] 	avg_time[23] 	0.025126939009
scalar level3_network.client[25] 	hdistance[25] 	1.8845800250731
scalar level3_network.client[25] 	downloads[25] 	11965
scalar level3_network.client[25] 	avg_time[25] 	0.024993817163
scalar level3_network.client[27] 	hdistance[27] 	1.8865782932891
scalar level3_network.client[27] 	downloads[27] 	12070
scalar level3_network.client[27] 	avg_time[27] 	0.039105101292
scalar level3_network.client[28] 	hdistance[28] 	1.8777536715621
scalar level3_network.client[28] 	downloads[28] 	11984
scalar level3_network.client[28] 	avg_time[28] 	0.033660845142
scalar level3_network.client[30] 	hdistance[30] 	1.8674251793223
scalar level3_network.client[30] 	downloads[30] 	12129
scalar level3_network.client[30] 	avg_time[30] 	0.026019147711
scalar level3_network.client[31] 	hdistance[31] 	1.8853465679677
scalar level3_network.client[31] 	downloads[31] 	11888
scalar level3_network.client[31] 	avg_time[31] 	0.041792693067
scalar level3_network.client[32] 	hdistance[32] 	1.9028457645399
scalar level3_network.client[32] 	downloads[32] 	12053
scalar level3_network.client[32] 	avg_time[32] 	0.036220703476
scalar level3_network.client[33] 	hdistance[33] 	1.8602087190709
scalar level3_network.client[33] 	downloads[33] 	11882
scalar level3_network.client[33] 	avg_time[33] 	0.032446810228
scalar level3_network.client[34] 	hdistance[34] 	1.8735461519426
scalar level3_network.client[34] 	downloads[34] 	12123
scalar level3_network.client[34] 	avg_time[34] 	0.042678133049
scalar level3_network.client[36] 	hdistance[36] 	1.8932809627277
scalar level3_network.client[36] 	downloads[36] 	11966
scalar level3_network.client[36] 	avg_time[36] 	0.027156716128
scalar level3_network.client[37] 	hdistance[37] 	1.9051846888349
scalar level3_network.client[37] 	downloads[37] 	11939
scalar level3_network.client[37] 	avg_time[37] 	0.032021966686
scalar level3_network.client[38] 	hdistance[38] 	1.8805279973096
scalar level3_network.client[38] 	downloads[38] 	11894
scalar level3_network.client[38] 	avg_time[38] 	0.040842025846
scalar level3_network.client[39] 	hdistance[39] 	1.861872909699
scalar level3_network.client[39] 	downloads[39] 	11960
scalar level3_network.client[39] 	avg_time[39] 	0.025971310179
scalar level3_network.client[40] 	hdistance[40] 	2.1711495489531
scalar level3_network.client[40] 	downloads[40] 	12083
scalar level3_network.client[40] 	avg_time[40] 	0.032844166659
scalar level3_network.client[42] 	hdistance[42] 	1.8570727317353
scalar level3_network.client[42] 	downloads[42] 	12223
scalar level3_network.client[42] 	avg_time[42] 	0.040322746383
scalar level3_network.client[43] 	hdistance[43] 	2.2621836350233
scalar level3_network.client[43] 	downloads[43] 	12209
scalar level3_network.client[43] 	avg_time[43] 	0.040987638891
scalar level3_network.client[45] 	hdistance[45] 	1.8992655650142
scalar level3_network.client[45] 	downloads[45] 	11982
scalar level3_network.client[45] 	avg_time[45] 	0.046273544237
