version 2
run General-17-20160826-16:54:50-21255
attr D ffc0.2
attr F nrr
attr R lru
attr a 0.9
attr configname General
attr datetime 20160826-16:54:50
attr experiment General
attr inifile hw5115/scenario_C/omnetp.ini
attr iterationvars "$net=abilene, $rep=2, $a=0.9, $F=nrr, $D=ffc0.2, $R=lru, $window=60, $variance=0.05, $mytime=600"
attr iterationvars2 "$net=abilene, $rep=2, $a=0.9, $F=nrr, $D=ffc0.2, $R=lru, $window=60, $variance=0.05, $mytime=600, $repetition=0"
attr measurement "$net=abilene, $rep=2, $a=0.9, $F=nrr, $D=ffc0.2, $R=lru, $window=60, $variance=0.05, $mytime=600"
attr mytime 600
attr net abilene
attr network networks.${net=abilene}_network
attr processid 21255
attr rep 2
attr repetition 0
attr replication #0
attr resultdir results
attr runnumber 17
attr seedset 2
attr variance 0.05
attr window 60

scalar . 	a 	0.9
scalar . 	mytime 	600
scalar . 	rep 	2
scalar . 	variance 	0.05
scalar . 	window 	60
scalar abilene_network.content_distribution 	repo-0 	4
scalar abilene_network.content_distribution 	repo-1 	9
scalar abilene_network.content_distribution 	repo-2 	6
scalar abilene_network.content_distribution 	repo-3 	3
scalar abilene_network.content_distribution 	repo-4 	7
scalar abilene_network.content_distribution 	repo-5 	8
scalar abilene_network.content_distribution 	repo-6 	10
scalar abilene_network.content_distribution 	repo-7 	0
scalar abilene_network.content_distribution 	repo-8 	5
scalar abilene_network.content_distribution 	repo-9 	2
scalar abilene_network.content_distribution 	repo-10 	1
scalar abilene_network.content_distribution 	client-0 	7
scalar abilene_network.content_distribution 	client-1 	5
scalar abilene_network.content_distribution 	client-2 	9
scalar abilene_network.content_distribution 	client-3 	6
scalar abilene_network.content_distribution 	client-4 	8
scalar abilene_network.content_distribution 	client-5 	2
scalar abilene_network.content_distribution 	client-6 	1
scalar abilene_network.content_distribution 	client-7 	10
scalar abilene_network.content_distribution 	client-8 	0
scalar abilene_network.content_distribution 	client-9 	3
scalar abilene_network.content_distribution 	client-10 	4
scalar abilene_network.content_distribution 	repo-0_card 	9130
scalar abilene_network.content_distribution 	repo-0_price 	0
scalar abilene_network.content_distribution 	repo-1_card 	8938
scalar abilene_network.content_distribution 	repo-1_price 	0
scalar abilene_network.content_distribution 	repo-2_card 	9073
scalar abilene_network.content_distribution 	repo-2_price 	0
scalar abilene_network.content_distribution 	repo-3_card 	9064
scalar abilene_network.content_distribution 	repo-3_price 	0
scalar abilene_network.content_distribution 	repo-4_card 	9026
scalar abilene_network.content_distribution 	repo-4_price 	0
scalar abilene_network.content_distribution 	repo-5_card 	9161
scalar abilene_network.content_distribution 	repo-5_price 	0
scalar abilene_network.content_distribution 	repo-6_card 	9115
scalar abilene_network.content_distribution 	repo-6_price 	0
scalar abilene_network.content_distribution 	repo-7_card 	9125
scalar abilene_network.content_distribution 	repo-7_price 	0
scalar abilene_network.content_distribution 	repo-8_card 	9237
scalar abilene_network.content_distribution 	repo-8_price 	0
scalar abilene_network.content_distribution 	repo-9_card 	8999
scalar abilene_network.content_distribution 	repo-9_price 	0
scalar abilene_network.content_distribution 	repo-10_card 	9132
scalar abilene_network.content_distribution 	repo-10_price 	0
scalar abilene_network.statistics 	stabilization_time 	1088.1
scalar abilene_network.statistics 	p_hit 	0.1615745391551
scalar abilene_network.statistics 	interests 	30649.272727273
scalar abilene_network.statistics 	data 	18680.636363636
scalar abilene_network.statistics 	hdistance 	2.1758489599179
scalar abilene_network.statistics 	avg_time 	0.010020326402
scalar abilene_network.statistics 	downloads 	131648
scalar abilene_network.statistics 	total_cost 	0
scalar abilene_network.statistics 	total_replicas 	100000
scalar abilene_network.statistics 	inner_hit 	0.38659911278561
scalar abilene_network.node[0].core_layer 	interests[0] 	19326
scalar abilene_network.node[0].core_layer 	repo_load[0] 	7079
scalar abilene_network.node[0].core_layer 	data[0] 	8080
scalar abilene_network.node[0].core_layer 	repo_int[0] 	80753
scalar abilene_network.node[0].content_store 	p_hit[0] 	0.21561626823968
scalar abilene_network.node[0].content_store 	hits[0] 	4167
scalar abilene_network.node[0].content_store 	misses[0] 	15159
scalar abilene_network.node[0].content_store 	decision_yes[0] 	56
scalar abilene_network.node[0].content_store 	decision_no[0] 	15103
scalar abilene_network.node[0].content_store 	decision_ratio[0] 	0.0036941750775117
scalar abilene_network.node[1].core_layer 	interests[1] 	36399
scalar abilene_network.node[1].core_layer 	repo_load[1] 	7594
scalar abilene_network.node[1].core_layer 	data[1] 	24024
scalar abilene_network.node[1].content_store 	p_hit[1] 	0.13132228907388
scalar abilene_network.node[1].content_store 	hits[1] 	4780
scalar abilene_network.node[1].content_store 	misses[1] 	31619
scalar abilene_network.node[1].content_store 	decision_yes[1] 	80
scalar abilene_network.node[1].content_store 	decision_no[1] 	31538
scalar abilene_network.node[1].content_store 	decision_ratio[1] 	0.0025302043139984
scalar abilene_network.node[2].core_layer 	interests[2] 	48998
scalar abilene_network.node[2].core_layer 	repo_load[2] 	7688
scalar abilene_network.node[2].core_layer 	data[2] 	36315
scalar abilene_network.node[2].content_store 	p_hit[2] 	0.1019225274501
scalar abilene_network.node[2].content_store 	hits[2] 	4994
scalar abilene_network.node[2].content_store 	misses[2] 	44004
scalar abilene_network.node[2].content_store 	decision_yes[2] 	106
scalar abilene_network.node[2].content_store 	decision_no[2] 	43897
scalar abilene_network.node[2].content_store 	decision_ratio[2] 	0.0024089266640911
scalar abilene_network.node[3].core_layer 	interests[3] 	45899
scalar abilene_network.node[3].core_layer 	repo_load[3] 	7414
scalar abilene_network.node[3].core_layer 	data[3] 	33379
scalar abilene_network.node[3].content_store 	p_hit[3] 	0.11122246672041
scalar abilene_network.node[3].content_store 	hits[3] 	5105
scalar abilene_network.node[3].content_store 	misses[3] 	40794
scalar abilene_network.node[3].content_store 	decision_yes[3] 	72
scalar abilene_network.node[3].content_store 	decision_no[3] 	40721
scalar abilene_network.node[3].content_store 	decision_ratio[3] 	0.0017650087024735
scalar abilene_network.node[4].core_layer 	interests[4] 	27537
scalar abilene_network.node[4].core_layer 	repo_load[4] 	7676
scalar abilene_network.node[4].core_layer 	data[4] 	15573
scalar abilene_network.node[4].content_store 	p_hit[4] 	0.15575407633366
scalar abilene_network.node[4].content_store 	hits[4] 	4289
scalar abilene_network.node[4].content_store 	misses[4] 	23248
scalar abilene_network.node[4].content_store 	decision_yes[4] 	75
scalar abilene_network.node[4].content_store 	decision_no[4] 	23174
scalar abilene_network.node[4].content_store 	decision_ratio[4] 	0.0032259452019442
scalar abilene_network.node[5].core_layer 	interests[5] 	21164
scalar abilene_network.node[5].core_layer 	repo_load[5] 	7033
scalar abilene_network.node[5].core_layer 	data[5] 	9874
scalar abilene_network.node[5].content_store 	p_hit[5] 	0.2011907011907
scalar abilene_network.node[5].content_store 	hits[5] 	4258
scalar abilene_network.node[5].content_store 	misses[5] 	16906
scalar abilene_network.node[5].content_store 	decision_yes[5] 	55
scalar abilene_network.node[5].content_store 	decision_no[5] 	16852
scalar abilene_network.node[5].content_store 	decision_ratio[5] 	0.0032530904359141
scalar abilene_network.node[6].core_layer 	interests[6] 	23926
scalar abilene_network.node[6].core_layer 	repo_load[6] 	6919
scalar abilene_network.node[6].core_layer 	data[6] 	12704
scalar abilene_network.node[6].content_store 	p_hit[6] 	0.17976260135418
scalar abilene_network.node[6].content_store 	hits[6] 	4301
scalar abilene_network.node[6].content_store 	misses[6] 	19625
scalar abilene_network.node[6].content_store 	decision_yes[6] 	60
scalar abilene_network.node[6].content_store 	decision_no[6] 	19563
scalar abilene_network.node[6].content_store 	decision_ratio[6] 	0.0030576364470264
scalar abilene_network.node[7].core_layer 	interests[7] 	33674
scalar abilene_network.node[7].core_layer 	repo_load[7] 	7439
scalar abilene_network.node[7].core_layer 	data[7] 	21349
scalar abilene_network.node[7].content_store 	p_hit[7] 	0.14503771455723
scalar abilene_network.node[7].content_store 	hits[7] 	4884
scalar abilene_network.node[7].content_store 	misses[7] 	28790
scalar abilene_network.node[7].content_store 	decision_yes[7] 	78
scalar abilene_network.node[7].content_store 	decision_no[7] 	28710
scalar abilene_network.node[7].content_store 	decision_ratio[7] 	0.0027094622759483
scalar abilene_network.node[8].core_layer 	interests[8] 	32617
scalar abilene_network.node[8].core_layer 	repo_load[8] 	7384
scalar abilene_network.node[8].core_layer 	data[8] 	20135
scalar abilene_network.node[8].content_store 	p_hit[8] 	0.1562068859797
scalar abilene_network.node[8].content_store 	hits[8] 	5095
scalar abilene_network.node[8].content_store 	misses[8] 	27522
scalar abilene_network.node[8].content_store 	decision_yes[8] 	74
scalar abilene_network.node[8].content_store 	decision_no[8] 	27445
scalar abilene_network.node[8].content_store 	decision_ratio[8] 	0.0026890512009884
scalar abilene_network.node[9].core_layer 	interests[9] 	24170
scalar abilene_network.node[9].core_layer 	repo_load[9] 	7084
scalar abilene_network.node[9].core_layer 	data[9] 	12743
scalar abilene_network.node[9].content_store 	p_hit[9] 	0.17968556061233
scalar abilene_network.node[9].content_store 	hits[9] 	4343
scalar abilene_network.node[9].content_store 	misses[9] 	19827
scalar abilene_network.node[9].content_store 	decision_yes[9] 	59
scalar abilene_network.node[9].content_store 	decision_no[9] 	19768
scalar abilene_network.node[9].content_store 	decision_ratio[9] 	0.0029757401523175
scalar abilene_network.node[10].core_layer 	interests[10] 	23432
scalar abilene_network.node[10].core_layer 	repo_load[10] 	7443
scalar abilene_network.node[10].core_layer 	data[10] 	11311
scalar abilene_network.node[10].content_store 	p_hit[10] 	0.19959883919426
scalar abilene_network.node[10].content_store 	hits[10] 	4677
scalar abilene_network.node[10].content_store 	misses[10] 	18755
scalar abilene_network.node[10].content_store 	decision_yes[10] 	69
scalar abilene_network.node[10].content_store 	decision_no[10] 	18685
scalar abilene_network.node[10].content_store 	decision_ratio[10] 	0.0036792151007785
scalar abilene_network.client[0] 	hdistance[0] 	2.5042495325514
scalar abilene_network.client[0] 	downloads[0] 	11766
scalar abilene_network.client[0] 	avg_time[0] 	0.013183124711
scalar abilene_network.client[1] 	hdistance[1] 	2.0809519818989
scalar abilene_network.client[1] 	downloads[1] 	11933
scalar abilene_network.client[1] 	avg_time[1] 	0.008769476612
scalar abilene_network.client[2] 	hdistance[2] 	1.879262295082
scalar abilene_network.client[2] 	downloads[2] 	12200
scalar abilene_network.client[2] 	avg_time[2] 	0.007817095319
scalar abilene_network.client[3] 	hdistance[3] 	1.9145922387059
scalar abilene_network.client[3] 	downloads[3] 	11931
scalar abilene_network.client[3] 	avg_time[3] 	0.007748827832
scalar abilene_network.client[4] 	hdistance[4] 	2.3148835639555
scalar abilene_network.client[4] 	downloads[4] 	11852
scalar abilene_network.client[4] 	avg_time[4] 	0.008544214047
scalar abilene_network.client[5] 	hdistance[5] 	2.5543168482817
scalar abilene_network.client[5] 	downloads[5] 	11930
scalar abilene_network.client[5] 	avg_time[5] 	0.010810101308
scalar abilene_network.client[6] 	hdistance[6] 	2.3612239820881
scalar abilene_network.client[6] 	downloads[6] 	12059
scalar abilene_network.client[6] 	avg_time[6] 	0.010787150149
scalar abilene_network.client[7] 	hdistance[7] 	1.9713975983989
scalar abilene_network.client[7] 	downloads[7] 	11992
scalar abilene_network.client[7] 	avg_time[7] 	0.008386160953
scalar abilene_network.client[8] 	hdistance[8] 	1.9155796209697
scalar abilene_network.client[8] 	downloads[8] 	12189
scalar abilene_network.client[8] 	avg_time[8] 	0.009231341285
scalar abilene_network.client[9] 	hdistance[9] 	2.1685563114135
scalar abilene_network.client[9] 	downloads[9] 	11907
scalar abilene_network.client[9] 	avg_time[9] 	0.01301889788
scalar abilene_network.client[10] 	hdistance[10] 	2.2693245857515
scalar abilene_network.client[10] 	downloads[10] 	11889
scalar abilene_network.client[10] 	avg_time[10] 	0.011927200336
